
  -OEChem-10081705533D

 12 12  0     1  0  0  0  0  0999 V2000
   -0.8478   -0.7432   -0.4078 O   0  0  0  0  0  0  0  0  0  0  0  0
    0.5588   -0.8552   -0.1573 C   0  0  1  0  0  0  0  0  0  0  0  0
    0.7912    0.0472    1.0737 C   0  0  1  0  0  0  0  0  0  0  0  0
   -0.3212    1.1100    0.9865 C   0  0  1  0  0  0  0  0  0  0  0  0
   -1.3346    0.5508   -0.0186 C   0  0  1  0  0  0  0  0  0  0  0  0
    0.8307   -2.2294    0.1006 O   0  0  0  0  0  0  0  0  0  0  0  0
    1.3986   -0.4879   -1.4057 C   0  0  0  0  0  0  0  0  0  0  0  0
    2.8054   -0.5632   -1.2124 O   0  0  0  0  0  0  0  0  0  0  0  0
    0.7462   -0.6807    2.3006 O   0  0  0  0  0  0  0  0  0  0  0  0
   -0.9548    1.4120    2.2253 O   0  0  0  0  0  0  0  0  0  0  0  0
   -1.4749    1.5177   -1.2083 C   0  0  0  0  0  0  0  0  0  0  0  0
   -2.1975    0.9220   -2.2767 O   0  0  0  0  0  0  0  0  0  0  0  0
  1  5  1  0  0  0  0
  1  2  1  0  0  0  0
  2  3  1  0  0  0  0
  2  6  1  0  0  0  0
  2  7  1  0  0  0  0
  3  4  1  0  0  0  0
  3  9  1  0  0  0  0
  4  5  1  0  0  0  0
  4 10  1  0  0  0  0
  5 11  1  0  0  0  0
  7  8  1  0  0  0  0
 11 12  1  0  0  0  0
M  END
