
  -OEChem-10081705523D

 11 11  0     1  0  0  0  0  0999 V2000
    1.0783    0.1046    0.0385 C   0  0  2  0  0  0  0  0  0  0  0  0
    0.3746   -1.1128   -0.4970 C   0  0  0  0  0  0  0  0  0  0  0  0
   -0.9685   -1.1723   -0.5205 C   0  0  0  0  0  0  0  0  0  0  0  0
   -1.7517   -0.1663   -0.0703 C   0  0  0  0  0  0  0  0  0  0  0  0
   -1.2097    0.9577    0.4499 C   0  0  0  0  0  0  0  0  0  0  0  0
    0.1182    1.1514    0.5346 C   0  0  0  0  0  0  0  0  0  0  0  0
    1.9844    0.7119   -1.0692 C   0  0  0  0  0  0  0  0  0  0  0  0
    2.0661   -0.2991    1.1701 C   0  0  0  0  0  0  0  0  0  0  0  0
    0.9090   -2.3530   -1.0466 C   0  0  0  0  0  0  0  0  0  0  0  0
   -2.9654   -0.2754   -0.1326 O   0  0  0  0  0  0  0  0  0  0  0  0
    0.3647    2.4533    1.1432 C   0  0  0  0  0  0  0  0  0  0  0  0
  1  2  1  0  0  0  0
  1  6  1  0  0  0  0
  1  7  1  0  0  0  0
  1  8  1  0  0  0  0
  2  3  2  0  0  0  0
  2  9  1  0  0  0  0
  3  4  1  0  0  0  0
  4  5  1  0  0  0  0
  4 10  2  0  0  0  0
  5  6  2  0  0  0  0
  6 11  1  0  0  0  0
M  END
