
  -OEChem-10071718523D

  5  3  0     0  0  0  0  0  0999 V2000
    0.8374   -1.9560    0.0465 N   0  3  0  0  0  0  0  0  0  0  0  0
    1.8672   -2.8998   -0.0247 O   0  0  0  0  0  0  0  0  0  0  0  0
   -0.2941   -2.4265   -0.0515 O   0  0  0  0  0  0  0  0  0  0  0  0
    1.2198   -0.7996    0.2142 O   0  5  0  0  0  0  0  0  0  0  0  0
    4.2415    0.2121   -0.0520 N   0  0  0  0  0  0  0  0  0  0  0  0
  1  2  1  0  0  0  0
  1  3  2  0  0  0  0
  1  4  1  0  0  0  0
M  CHG  2   1   1   4  -1
M  END
