
  -OEChem-10081705533D

 43 44  0     1  0  0  0  0  0999 V2000
    6.9704    2.7954    0.1308 C   0  0  0  0  0  0  0  0  0  0  0  0
    7.8195    3.8668   -0.0013 O   0  0  0  0  0  0  0  0  0  0  0  0
   -0.2192    0.0215   -0.8165 C   0  0  0  0  0  0  0  0  0  0  0  0
   -1.5388    0.2849   -1.0997 O   0  0  0  0  0  0  0  0  0  0  0  0
    5.6471    3.0084    0.5575 C   0  0  0  0  0  0  0  0  0  0  0  0
    0.7800    0.9219   -1.2181 C   0  0  0  0  0  0  0  0  0  0  0  0
    1.4393   -1.3204    0.3163 C   0  0  0  0  0  0  0  0  0  0  0  0
    7.4139    1.5177   -0.2417 C   0  0  0  0  0  0  0  0  0  0  0  0
    2.1209    0.6490   -0.8871 C   0  0  0  0  0  0  0  0  0  0  0  0
    2.4697   -0.4565   -0.0993 C   0  0  0  0  0  0  0  0  0  0  0  0
    4.1562   -0.8522    0.4416 P   0  0  0  0  0  0  0  0  0  0  0  0
    4.7910    1.8976    0.6778 C   0  0  0  0  0  0  0  0  0  0  0  0
    5.2054    0.6114    0.3062 C   0  0  0  0  0  0  0  0  0  0  0  0
    6.5236    0.4390   -0.1419 C   0  0  0  0  0  0  0  0  0  0  0  0
    4.2148   -3.6858   -1.8544 C   0  0  0  0  0  0  0  0  0  0  0  0
    3.1012   -4.4764   -1.1841 C   0  0  0  0  0  0  0  0  0  0  0  0
    6.3080   -4.3562   -0.3078 C   0  4  0  0  0  0  0  0  0  0  0  0
    6.7930   -3.9206    1.0779 C   0  4  0  0  0  0  0  0  0  0  0  0
    5.7865   -2.9149    1.6362 C   0  4  0  0  0  0  0  0  0  0  0  0
    4.8306   -2.5194    0.5017 C   0  4  0  0  0  0  0  0  0  0  0  0
    5.2228   -3.3508   -0.7381 C   0  4  0  0  0  0  0  0  0  0  0  0
    5.1068   -4.5922   -3.1833 P   0  0  0  0  0  0  0  0  0  0  0  0
    7.2806   -3.2006   -2.2129 C   0  0  0  0  0  0  0  0  0  0  0  0
    6.5312   -3.4395   -3.5530 C   0  0  0  0  0  0  0  0  0  0  0  0
    6.1300   -2.0769   -4.1129 C   0  0  0  0  0  0  0  0  0  0  0  0
    3.9217   -4.6958   -4.6135 C   0  0  0  0  0  0  0  0  0  0  0  0
    3.0323   -5.9456   -4.3784 C   0  0  0  0  0  0  0  0  0  0  0  0
    3.0018   -3.4774   -4.7652 C   0  0  0  0  0  0  0  0  0  0  0  0
    0.1004   -1.1029   -0.0392 C   0  0  0  0  0  0  0  0  0  0  0  0
    4.6482   -4.9289   -5.9488 C   0  0  0  0  0  0  0  0  0  0  0  0
    7.5381   -4.1049   -4.5129 C   0  0  0  0  0  0  0  0  0  0  0  0
    8.5411    4.0852    1.2122 C   0  0  0  0  0  0  0  0  0  0  0  0
   -1.8984   -0.2390   -2.3777 C   0  0  0  0  0  0  0  0  0  0  0  0
   -0.9546   -2.0717    0.4157 C   0  0  0  0  0  0  0  0  0  0  0  0
    0.4553    2.1706   -1.9914 C   0  0  0  0  0  0  0  0  0  0  0  0
    5.0926    4.3739    0.8423 C   0  0  0  0  0  0  0  0  0  0  0  0
    8.8135    1.2692   -0.7303 C   0  0  0  0  0  0  0  0  0  0  0  0
    5.7883   -8.1277    0.0689 C   0  4  0  0  0  0  0  0  0  0  0  0
    6.6176   -8.3268    1.3451 C   0  4  0  0  0  0  0  0  0  0  0  0
    8.0351   -7.8232    1.0525 C   0  4  0  0  0  0  0  0  0  0  0  0
    8.1008   -7.3556   -0.4099 C   0  4  0  0  0  0  0  0  0  0  0  0
    6.6807   -7.4471   -0.9814 C   0  4  0  0  0  0  0  0  0  0  0  0
    6.4172   -4.3914    0.0000 Fe  0  0  0  0  0  0  0  0  0  0  0  0
  1  2  1  0  0  0  0
  1  8  2  0  0  0  0
  1  5  1  0  0  0  0
  2 32  1  0  0  0  0
  3 29  2  0  0  0  0
  3  4  1  0  0  0  0
  3  6  1  0  0  0  0
  4 33  1  0  0  0  0
  5 36  1  0  0  0  0
  5 12  2  0  0  0  0
  6 35  1  0  0  0  0
  6  9  2  0  0  0  0
  7 10  2  0  0  0  0
  7 29  1  0  0  0  0
  8 14  1  0  0  0  0
  8 37  1  0  0  0  0
  9 10  1  0  0  0  0
 10 11  1  0  0  0  0
 11 20  1  0  0  0  0
 11 13  1  0  0  0  0
 12 13  1  0  0  0  0
 13 14  2  0  0  0  0
 15 21  1  0  0  0  0
 15 22  1  0  0  0  0
 15 16  1  0  0  0  0
 17 21  1  0  0  0  0
 17 18  1  0  0  0  0
 18 19  1  0  0  0  0
 19 20  1  0  0  0  0
 20 21  1  0  0  0  0
 22 24  1  0  0  0  0
 22 26  1  0  0  0  0
 23 24  1  0  0  0  0
 24 25  1  0  0  0  0
 24 31  1  0  0  0  0
 26 27  1  0  0  0  0
 26 28  1  0  0  0  0
 26 30  1  0  0  0  0
 29 34  1  0  0  0  0
 38 39  1  0  0  0  0
 38 42  1  0  0  0  0
 39 40  1  0  0  0  0
 40 41  1  0  0  0  0
 41 42  1  0  0  0  0
M  RAD  8  17   2  18   2  19   2  20   2  21   2  38   2  39   2  40   2
M  RAD  2  41   2  42   2
M  END
