16218660
  -OEChem-10081705533D

 55 58  0     1  0  0  0  0  0999 V2000
    5.8458    4.9838   -1.2777 Fe  0  0  0  0  0  0  0  0  0  0  0  0
   -6.7086   -3.5051    1.0404 P   0  0  0  0  0  0  0  0  0  0  0  0
  -10.5277   -3.4384   -1.5731 P   0  0  0  0  0  0  0  0  0  0  0  0
  -16.6059   -4.7701    0.1160 F   0  0  0  0  0  0  0  0  0  0  0  0
  -15.9905   -4.3683   -1.9275 F   0  0  0  0  0  0  0  0  0  0  0  0
  -15.2600   -6.1388   -0.8980 F   0  0  0  0  0  0  0  0  0  0  0  0
  -13.1800    0.5394   -3.9755 F   0  0  0  0  0  0  0  0  0  0  0  0
  -11.6600    1.8394   -4.8153 F   0  0  0  0  0  0  0  0  0  0  0  0
  -12.4360    2.2213   -2.8196 F   0  0  0  0  0  0  0  0  0  0  0  0
  -12.8508   -2.3725    3.6886 F   0  0  0  0  0  0  0  0  0  0  0  0
  -14.6135   -1.3423    2.9431 F   0  0  0  0  0  0  0  0  0  0  0  0
  -12.6396   -0.5546    2.5133 F   0  0  0  0  0  0  0  0  0  0  0  0
   -6.9697    1.6297   -3.1654 F   0  0  0  0  0  0  0  0  0  0  0  0
   -6.2834   -0.2608   -2.3543 F   0  0  0  0  0  0  0  0  0  0  0  0
   -7.0666    1.2692   -1.0226 F   0  0  0  0  0  0  0  0  0  0  0  0
   -5.0211   -4.1990    1.4006 C   0  0  0  0  0  0  0  0  0  0  0  0
   -7.3651   -3.1169    2.7414 C   0  0  0  0  0  0  0  0  0  0  0  0
   -4.1760   -3.2433    2.2794 C   0  0  0  0  0  0  0  0  0  0  0  0
   -4.2487   -4.5095    0.1077 C   0  0  0  0  0  0  0  0  0  0  0  0
   -7.7562   -1.6251    2.7938 C   0  0  0  0  0  0  0  0  0  0  0  0
   -8.5288   -3.9817    3.2413 C   0  0  0  0  0  0  0  0  0  0  0  0
   -7.7285   -4.8889    0.4159 C   0  0  0  0  0  0  0  0  0  0  0  0
   -2.6636   -3.3646    2.0666 C   0  0  0  0  0  0  0  0  0  0  0  0
   -2.9278   -5.2346    0.3967 C   0  0  0  0  0  0  0  0  0  0  0  0
   -8.2401   -1.2074    4.1827 C   0  0  0  0  0  0  0  0  0  0  0  0
   -8.9751   -3.5655    4.6446 C   0  0  0  0  0  0  0  0  0  0  0  0
   -2.2637   -4.7847    1.6963 C   0  0  0  0  0  0  0  0  0  0  0  0
   -9.3794   -2.0948    4.6735 C   0  0  0  0  0  0  0  0  0  0  0  0
   -7.9539   -4.7050   -1.1022 C   0  4  0  0  0  0  0  0  0  0  0  0
   -7.2418   -6.3012    0.6666 C   0  0  0  0  0  0  0  0  0  0  0  0
   -9.3837   -4.8167   -1.6598 C   0  4  0  0  0  0  0  0  0  0  0  0
   -7.0041   -5.3630   -2.1187 C   0  4  0  0  0  0  0  0  0  0  0  0
   -9.3105   -5.6500   -2.9406 C   0  4  0  0  0  0  0  0  0  0  0  0
   -7.8476   -5.9417   -3.2577 C   0  4  0  0  0  0  0  0  0  0  0  0
  -12.0221   -3.3619   -0.5657 C   0  0  0  0  0  0  0  0  0  0  0  0
  -10.2117   -1.7334   -2.0831 C   0  0  0  0  0  0  0  0  0  0  0  0
  -12.0930   -2.6063    0.6125 C   0  0  0  0  0  0  0  0  0  0  0  0
   -8.9258   -1.1904   -1.9496 C   0  0  0  0  0  0  0  0  0  0  0  0
  -13.1566   -4.0767   -0.9783 C   0  0  0  0  0  0  0  0  0  0  0  0
  -11.2221   -0.9415   -2.6523 C   0  0  0  0  0  0  0  0  0  0  0  0
  -13.2810   -2.5444    1.3550 C   0  0  0  0  0  0  0  0  0  0  0  0
   -8.6454    0.1150   -2.3757 C   0  0  0  0  0  0  0  0  0  0  0  0
  -14.3458   -4.0399   -0.2404 C   0  0  0  0  0  0  0  0  0  0  0  0
  -10.9628    0.3708   -3.0707 C   0  0  0  0  0  0  0  0  0  0  0  0
  -14.4006   -3.2689    0.9249 C   0  0  0  0  0  0  0  0  0  0  0  0
   -9.6724    0.8911   -2.9215 C   0  0  0  0  0  0  0  0  0  0  0  0
  -15.5355   -4.8159   -0.7242 C   0  0  0  0  0  0  0  0  0  0  0  0
  -12.0457    1.2249   -3.6622 C   0  0  0  0  0  0  0  0  0  0  0  0
  -13.3475   -1.7152    2.6051 C   0  0  0  0  0  0  0  0  0  0  0  0
   -7.2618    0.6792   -2.2336 C   0  0  0  0  0  0  0  0  0  0  0  0
   41.4512    0.1526    2.4626 C   0  4  0  0  0  0  0  0  0  0  0  0
   40.1393    0.7707    1.9681 C   0  4  0  0  0  0  0  0  0  0  0  0
   41.8942    0.9275    3.7077 C   0  4  0  0  0  0  0  0  0  0  0  0
   39.8883    2.0463    2.7789 C   0  4  0  0  0  0  0  0  0  0  0  0
   40.9278    2.1002    3.9029 C   0  4  0  0  0  0  0  0  0  0  0  0
  2 16  1  0  0  0  0
  2 17  1  0  0  0  0
  2 22  1  0  0  0  0
  3 31  1  0  0  0  0
  3 35  1  0  0  0  0
  3 36  1  0  0  0  0
  4 47  1  0  0  0  0
  5 47  1  0  0  0  0
  6 47  1  0  0  0  0
  7 48  1  0  0  0  0
  8 48  1  0  0  0  0
  9 48  1  0  0  0  0
 10 49  1  0  0  0  0
 11 49  1  0  0  0  0
 12 49  1  0  0  0  0
 13 50  1  0  0  0  0
 14 50  1  0  0  0  0
 15 50  1  0  0  0  0
 16 18  1  0  0  0  0
 16 19  1  0  0  0  0
 17 20  1  0  0  0  0
 17 21  1  0  0  0  0
 18 23  1  0  0  0  0
 19 24  1  0  0  0  0
 20 25  1  0  0  0  0
 21 26  1  0  0  0  0
 22 29  1  0  0  0  0
 22 30  1  0  0  0  0
 23 27  1  0  0  0  0
 24 27  1  0  0  0  0
 25 28  1  0  0  0  0
 26 28  1  0  0  0  0
 29 31  1  0  0  0  0
 29 32  1  0  0  0  0
 31 33  1  0  0  0  0
 32 34  1  0  0  0  0
 33 34  1  0  0  0  0
 35 37  2  0  0  0  0
 35 39  1  0  0  0  0
 36 38  2  0  0  0  0
 36 40  1  0  0  0  0
 37 41  1  0  0  0  0
 38 42  1  0  0  0  0
 39 43  2  0  0  0  0
 40 44  2  0  0  0  0
 41 45  2  0  0  0  0
 41 49  1  0  0  0  0
 42 46  2  0  0  0  0
 42 50  1  0  0  0  0
 43 45  1  0  0  0  0
 43 47  1  0  0  0  0
 44 46  1  0  0  0  0
 44 48  1  0  0  0  0
 51 52  1  0  0  0  0
 51 53  1  0  0  0  0
 52 54  1  0  0  0  0
 53 55  1  0  0  0  0
 54 55  1  0  0  0  0
M  RAD  8  29   2  31   2  32   2  33   2  34   2  51   2  52   2  53   2
M  RAD  2  54   2  55   2
M  END
