
  -OEChem-10081705533D

 43 46  0     1  0  0  0  0  0999 V2000
    7.0937   -8.1367   -0.5274 C   0  4  0  0  0  0  0  0  0  0  0  0
    8.0860   -9.0566    0.1872 C   0  4  0  0  0  0  0  0  0  0  0  0
    8.3915   -8.4598    1.5637 C   0  4  0  0  0  0  0  0  0  0  0  0
    7.7403   -7.0736    1.6185 C   0  4  0  0  0  0  0  0  0  0  0  0
    6.8341   -6.9359    0.3898 C   0  4  0  0  0  0  0  0  0  0  0  0
    7.8486   -5.1518    0.0000 Fe  0  0  0  0  0  0  0  0  0  0  0  0
   13.0639   -6.8743   -0.4717 C   0  0  0  0  0  0  0  0  0  0  0  0
   13.2058   -5.4981   -0.6411 C   0  0  0  0  0  0  0  0  0  0  0  0
   12.0897   -4.6619   -0.5386 C   0  0  0  0  0  0  0  0  0  0  0  0
   10.8246   -5.1955   -0.2501 C   0  0  0  0  0  0  0  0  0  0  0  0
   10.6945   -6.5812   -0.0825 C   0  0  0  0  0  0  0  0  0  0  0  0
   11.8115   -7.4161   -0.1931 C   0  0  0  0  0  0  0  0  0  0  0  0
    9.3828   -4.1103   -0.1243 P   0  0  0  0  0  0  0  0  0  0  0  0
    9.5737   -3.9591    2.6860 C   0  0  0  0  0  0  0  0  0  0  0  0
    9.6791   -3.2818    1.4640 C   0  0  0  0  0  0  0  0  0  0  0  0
   10.0090   -1.9161    1.4774 C   0  0  0  0  0  0  0  0  0  0  0  0
   10.2089   -1.2447    2.6862 C   0  0  0  0  0  0  0  0  0  0  0  0
   10.1049   -1.9279    3.8945 C   0  0  0  0  0  0  0  0  0  0  0  0
    9.7817   -3.2833    3.8931 C   0  0  0  0  0  0  0  0  0  0  0  0
    5.2918   -4.1587    3.4299 C   0  0  0  0  0  0  0  0  0  0  0  0
    4.7755   -5.5657    3.4725 C   0  0  0  0  0  0  0  0  0  0  0  0
    2.2604   -0.2616    0.5076 C   0  0  0  0  0  0  0  0  0  0  0  0
    0.9354   -0.9636    0.4354 C   0  0  0  0  0  0  0  0  0  0  0  0
    3.5774    1.7778    0.7018 C   0  0  0  0  0  0  0  0  0  0  0  0
    3.6365    3.2717    0.8435 C   0  0  0  0  0  0  0  0  0  0  0  0
    5.8860   -2.1023    4.5857 C   0  0  0  0  0  0  0  0  0  0  0  0
    6.0055   -1.3109    5.8545 C   0  0  0  0  0  0  0  0  0  0  0  0
    6.0332   -2.5689   -0.7625 C   0  0  0  0  0  0  0  0  0  0  0  0
    6.8570   -2.2863   -2.0093 C   0  0  0  0  0  0  0  0  0  0  0  0
    5.3748   -5.0762   -0.6291 C   0  4  0  0  0  0  0  0  0  0  0  0
    6.0261   -6.1521   -1.5037 C   0  4  0  0  0  0  0  0  0  0  0  0
    7.5216   -5.8444   -1.5540 C   0  4  0  0  0  0  0  0  0  0  0  0
    7.7628   -4.5406   -0.7811 C   0  4  0  0  0  0  0  0  0  0  0  0
    6.4081   -3.9847   -0.2963 C   0  4  0  0  0  0  0  0  0  0  0  0
    6.2796   -1.3264    0.5639 P   0  0  0  0  0  0  0  0  0  0  0  0
    6.1708   -1.5090    3.3475 C   0  0  0  0  0  0  0  0  0  0  0  0
    6.0122   -2.2147    2.1373 C   0  0  0  0  0  0  0  0  0  0  0  0
    5.5838   -3.5467    2.2032 C   0  0  0  0  0  0  0  0  0  0  0  0
    5.4387   -3.4268    4.6132 C   0  0  0  0  0  0  0  0  0  0  0  0
    4.7035   -0.3826    0.5409 C   0  0  0  0  0  0  0  0  0  0  0  0
    2.3360    1.1307    0.6208 C   0  0  0  0  0  0  0  0  0  0  0  0
    3.4443   -1.0076    0.4881 C   0  0  0  0  0  0  0  0  0  0  0  0
    4.7492    1.0166    0.6459 C   0  0  0  0  0  0  0  0  0  0  0  0
  1  2  1  0  0  0  0
  1  5  1  0  0  0  0
  2  3  1  0  0  0  0
  3  4  1  0  0  0  0
  4  5  1  0  0  0  0
  7  8  1  0  0  0  0
  7 12  2  0  0  0  0
  8  9  2  0  0  0  0
  9 10  1  0  0  0  0
 10 11  2  0  0  0  0
 10 13  1  0  0  0  0
 11 12  1  0  0  0  0
 13 15  1  0  0  0  0
 13 33  1  0  0  0  0
 14 19  2  0  0  0  0
 14 15  1  0  0  0  0
 15 16  2  0  0  0  0
 16 17  1  0  0  0  0
 17 18  2  0  0  0  0
 18 19  1  0  0  0  0
 20 21  1  0  0  0  0
 20 38  1  0  0  0  0
 20 39  2  0  0  0  0
 22 23  1  0  0  0  0
 22 41  1  0  0  0  0
 22 42  2  0  0  0  0
 24 25  1  0  0  0  0
 24 43  1  0  0  0  0
 24 41  2  0  0  0  0
 26 27  1  0  0  0  0
 26 39  1  0  0  0  0
 26 36  2  0  0  0  0
 28 29  1  0  0  0  0
 28 34  1  0  0  0  0
 28 35  1  0  0  0  0
 30 34  1  0  0  0  0
 30 31  1  0  0  0  0
 31 32  1  0  0  0  0
 32 33  1  0  0  0  0
 33 34  1  0  0  0  0
 35 37  1  0  0  0  0
 35 40  1  0  0  0  0
 36 37  1  0  0  0  0
 37 38  2  0  0  0  0
 40 42  1  0  0  0  0
 40 43  2  0  0  0  0
M  RAD  8   1   2   2   2   3   2   4   2   5   2  30   2  31   2  32   2
M  RAD  2  33   2  34   2
M  END
