16218212
  -OEChem-10081705533D

 28 30  0     1  0  0  0  0  0999 V2000
   -2.9912   -0.6725   -0.6177 P   0  0  0  0  0  0  0  0  0  0  0  0
    1.6922    1.8427   -0.7016 P   0  0  0  0  0  0  0  0  0  0  0  0
   -3.0728   -1.2201    0.9710 C   0  0  1  0  0  0  0  0  0  0  0  0
   -2.2990   -2.0137   -1.3541 C   0  0  1  0  0  0  0  0  0  0  0  0
    2.1960    2.0752    0.8749 C   0  0  1  0  0  0  0  0  0  0  0  0
    2.5963    0.4687   -1.0942 C   0  0  1  0  0  0  0  0  0  0  0  0
   -3.7345   -2.5886    0.6329 C   0  0  0  0  0  0  0  0  0  0  0  0
   -3.1052   -3.1447   -0.6637 C   0  0  0  0  0  0  0  0  0  0  0  0
    3.6948    1.6778    0.8062 C   0  0  0  0  0  0  0  0  0  0  0  0
    3.9593    0.9567   -0.5350 C   0  0  0  0  0  0  0  0  0  0  0  0
   -1.8347   -1.2356    1.9604 C   0  0  2  0  0  0  0  0  0  0  0  0
   -2.2714   -2.1053   -2.9246 C   0  0  2  0  0  0  0  0  0  0  0  0
    1.8724    3.4190    1.6213 C   0  0  1  0  0  0  0  0  0  0  0  0
    2.3003   -1.0548   -0.7740 C   0  0  1  0  0  0  0  0  0  0  0  0
   -2.1173    0.6718   -0.7161 C   0  0  0  0  0  0  0  0  0  0  0  0
    0.0807    1.8409   -0.7619 C   0  0  0  0  0  0  0  0  0  0  0  0
   -0.7083    0.6753   -0.7404 C   0  0  0  0  0  0  0  0  0  0  0  0
   -2.0483   -2.0917    3.2495 C   0  0  0  0  0  0  0  0  0  0  0  0
   -1.3691    0.1574    2.5023 C   0  0  0  0  0  0  0  0  0  0  0  0
   -1.6467   -3.4428   -3.4275 C   0  0  0  0  0  0  0  0  0  0  0  0
   -1.5604   -0.9289   -3.6539 C   0  0  0  0  0  0  0  0  0  0  0  0
    2.1486    3.3150    3.1493 C   0  0  0  0  0  0  0  0  0  0  0  0
    2.5108    4.7072    1.0289 C   0  0  0  0  0  0  0  0  0  0  0  0
    3.2563   -2.0621   -1.4807 C   0  0  0  0  0  0  0  0  0  0  0  0
    2.1334   -1.4444    0.7223 C   0  0  0  0  0  0  0  0  0  0  0  0
   -2.7718    1.9220   -0.7450 C   0  0  0  0  0  0  0  0  0  0  0  0
   -0.6210    3.0707   -0.8037 C   0  0  0  0  0  0  0  0  0  0  0  0
   -2.0280    3.1167   -0.7876 C   0  0  0  0  0  0  0  0  0  0  0  0
  1  3  1  0  0  0  0
  1  4  1  0  0  0  0
  1 15  1  0  0  0  0
  2  5  1  0  0  0  0
  2  6  1  0  0  0  0
  2 16  1  0  0  0  0
  3  7  1  0  0  0  0
  3 11  1  0  0  0  0
  4  8  1  0  0  0  0
  4 12  1  0  0  0  0
  5  9  1  0  0  0  0
  5 13  1  0  0  0  0
  6 10  1  0  0  0  0
  6 14  1  0  0  0  0
  7  8  1  0  0  0  0
  9 10  1  0  0  0  0
 11 18  1  0  0  0  0
 11 19  1  0  0  0  0
 12 20  1  0  0  0  0
 12 21  1  0  0  0  0
 13 22  1  0  0  0  0
 13 23  1  0  0  0  0
 14 24  1  0  0  0  0
 14 25  1  0  0  0  0
 15 17  2  0  0  0  0
 15 26  1  0  0  0  0
 16 17  1  0  0  0  0
 16 27  2  0  0  0  0
 26 28  2  0  0  0  0
 27 28  1  0  0  0  0
M  END
