
  -OEChem-10081705533D

 12 12  0     1  0  0  0  0  0999 V2000
   -0.0066   -0.2634    2.4360 O   0  0  0  0  0  0  0  0  0  0  0  0
    0.7026   -1.2515    1.6775 C   0  0  0  0  0  0  0  0  0  0  0  0
    0.6851   -0.9843    0.1334 C   0  0  2  0  0  0  0  0  0  0  0  0
    1.1742    0.3823   -0.1251 O   0  0  0  0  0  0  0  0  0  0  0  0
   -0.0011    1.2483   -0.2899 C   0  0  0  0  0  0  0  0  0  0  0  0
    0.0378    2.3825    0.5764 O   0  0  0  0  0  0  0  0  0  0  0  0
   -0.0680    1.7352   -1.7539 C   0  0  0  0  0  0  0  0  0  0  0  0
    1.0868    2.5265   -2.0408 O   0  0  0  0  0  0  0  0  0  0  0  0
   -1.1943    0.3421    0.0516 C   0  0  1  0  0  0  0  0  0  0  0  0
   -2.4347    0.8076   -0.4818 O   0  0  0  0  0  0  0  0  0  0  0  0
   -0.7528   -1.0103   -0.4504 C   0  0  1  0  0  0  0  0  0  0  0  0
   -0.6785   -1.0038   -1.8786 O   0  0  0  0  0  0  0  0  0  0  0  0
  1  2  1  0  0  0  0
  3  2  1  1  0  0  0
  3  4  1  0  0  0  0
  4  5  1  0  0  0  0
  5  6  1  0  0  0  0
  5  7  1  0  0  0  0
  7  8  1  0  0  0  0
  5  9  1  0  0  0  0
  9 10  1  1  0  0  0
  9 11  1  0  0  0  0
  3 11  1  0  0  0  0
 11 12  1  1  0  0  0
M  END
