
  -OEChem-10081705533D

 12 12  0     1  0  0  0  0  0999 V2000
    2.2853   -2.0159    0.1765 O   0  0  0  0  0  0  0  0  0  0  0  0
    2.1150   -1.0922    1.2469 C   0  0  0  0  0  0  0  0  0  0  0  0
    0.9266   -0.1421    1.0198 C   0  0  2  0  0  0  0  0  0  0  0  0
   -0.2832   -0.8700    0.7761 O   0  0  0  0  0  0  0  0  0  0  0  0
   -1.1443    0.0169    0.0518 C   0  0  2  0  0  0  0  0  0  0  0  0
   -1.8549    0.8661    0.9556 O   0  0  0  0  0  0  0  0  0  0  0  0
   -2.1920   -0.7887   -0.7393 C   0  0  0  0  0  0  0  0  0  0  0  0
   -1.6137   -1.8003   -1.5587 O   0  0  0  0  0  0  0  0  0  0  0  0
   -0.2127    0.8124   -0.8817 C   0  0  1  0  0  0  0  0  0  0  0  0
   -0.7014    2.1123   -1.2086 O   0  0  0  0  0  0  0  0  0  0  0  0
    1.1431    0.8107   -0.1627 C   0  0  1  0  0  0  0  0  0  0  0  0
    1.5322    2.0907    0.3244 O   0  0  0  0  0  0  0  0  0  0  0  0
  1  2  1  0  0  0  0
  2  3  1  0  0  0  0
  3  4  1  0  0  0  0
  3 11  1  0  0  0  0
  4  5  1  0  0  0  0
  5  6  1  0  0  0  0
  5  7  1  0  0  0  0
  5  9  1  0  0  0  0
  7  8  1  0  0  0  0
  9 10  1  0  0  0  0
  9 11  1  0  0  0  0
 11 12  1  0  0  0  0
M  END
