
  -OEChem-10081705533D

 51 56  0     1  0  0  0  0  0999 V2000
   10.8700  -10.5023    9.9141 C   0  0  0  0  0  0  0  0  0  0  0  0
   10.3690  -11.7147    9.4628 C   0  0  0  0  0  0  0  0  0  0  0  0
    9.7678  -11.7761    8.2127 C   0  0  0  0  0  0  0  0  0  0  0  0
   10.7420   -9.3412    9.1259 C   0  0  0  0  0  0  0  0  0  0  0  0
   11.2360   -8.1831    9.6688 O   0  0  0  0  0  0  0  0  0  0  0  0
    9.3128  -13.0012    7.8024 O   0  0  0  0  0  0  0  0  0  0  0  0
   10.1262   -9.3926    7.8515 C   0  0  0  0  0  0  0  0  0  0  0  0
    9.6623  -10.6337    7.4029 C   0  0  0  0  0  0  0  0  0  0  0  0
    9.1168  -10.7577    6.0409 C   0  0  0  0  0  0  0  0  0  0  0  0
    9.9828   -8.1706    6.9914 C   0  0  0  0  0  0  0  0  0  0  0  0
   10.4787   -7.1079    7.3201 O   0  0  0  0  0  0  0  0  0  0  0  0
    8.7532  -11.8480    5.6294 O   0  0  0  0  0  0  0  0  0  0  0  0
    9.2854   -8.2811    5.6891 C   0  0  0  0  0  0  0  0  0  0  0  0
    8.9872   -9.5510    5.1960 C   0  0  0  0  0  0  0  0  0  0  0  0
    8.5372   -9.6775    3.8820 C   0  0  0  0  0  0  0  0  0  0  0  0
    9.0145   -7.1509    4.8853 C   0  0  0  0  0  0  0  0  0  0  0  0
    8.5133   -7.2769    3.5501 C   0  0  0  0  0  0  0  0  0  0  0  0
    8.2806   -8.5576    3.0594 C   0  0  0  0  0  0  0  0  0  0  0  0
    8.0361   -8.7842    1.6286 C   0  0  0  0  0  0  0  0  0  0  0  0
    7.6527   -7.5547    0.8281 C   0  0  0  0  0  0  0  0  0  0  0  0
    7.4995   -6.0474    1.1917 C   0  0  0  0  0  0  0  0  0  0  0  0
    8.3632   -6.0482    2.6268 C   0  0  0  0  0  0  0  0  0  0  0  0
    8.4873  -10.9253    3.3188 O   0  0  0  0  0  0  0  0  0  0  0  0
    8.0014   -4.6948    1.0199 O   0  0  0  0  0  0  0  0  0  0  0  0
    7.4614   -5.8093   -0.5166 C   0  0  0  0  0  0  0  0  0  0  0  0
    6.5939   -4.6465   -1.0544 C   0  0  0  0  0  0  0  0  0  0  0  0
    7.1160   -9.8590    1.3947 O   0  0  0  0  0  0  0  0  0  0  0  0
    7.2700  -10.5757    0.1244 C   0  0  0  0  0  0  0  0  0  0  0  0
    8.6404  -10.7563   -0.2739 O   0  0  0  0  0  0  0  0  0  0  0  0
    8.7941  -11.5005   -1.4979 C   0  0  0  0  0  0  0  0  0  0  0  0
    7.9321  -10.8929   -2.6459 C   0  0  0  0  0  0  0  0  0  0  0  0
    6.4691  -10.4076   -2.2861 C   0  0  0  0  0  0  0  0  0  0  0  0
    6.5134   -9.7874   -0.9249 C   0  0  0  0  0  0  0  0  0  0  0  0
    8.7282  -12.9807   -1.2182 C   0  0  0  0  0  0  0  0  0  0  0  0
    8.2736  -11.4311   -3.9396 O   0  0  0  0  0  0  0  0  0  0  0  0
    5.2343  -11.1863   -2.4843 N   0  0  0  0  0  0  0  0  0  0  0  0
    4.0517  -10.3080   -2.6458 C   0  0  0  0  0  0  0  0  0  0  0  0
    4.8997  -12.2041   -1.4969 C   0  0  0  0  0  0  0  0  0  0  0  0
    7.2790  -12.0025   -4.8024 C   0  0  0  0  0  0  0  0  0  0  0  0
    6.1126  -11.2204   -4.9317 O   0  0  0  0  0  0  0  0  0  0  0  0
    5.0470  -11.7623   -5.6783 C   0  0  0  0  0  0  0  0  0  0  0  0
    4.6818  -13.2000   -5.3336 C   0  0  0  0  0  0  0  0  0  0  0  0
    5.7123  -14.0564   -4.5972 C   0  0  0  0  0  0  0  0  0  0  0  0
    7.0828  -13.4369   -4.3633 C   0  0  0  0  0  0  0  0  0  0  0  0
    5.2327  -11.4918   -7.1695 C   0  0  0  0  0  0  0  0  0  0  0  0
    4.2408  -13.8410   -6.5292 O   0  0  0  0  0  0  0  0  0  0  0  0
    5.8911  -15.2870   -5.3306 O   0  0  0  0  0  0  0  0  0  0  0  0
    9.6164   -5.1368    2.7619 C   0  0  0  0  0  0  0  0  0  0  0  0
   10.7804   -5.7974    2.5108 O   0  0  0  0  0  0  0  0  0  0  0  0
    9.5566   -3.9290    2.9911 O   0  0  0  0  0  0  0  0  0  0  0  0
   11.8343   -5.4223    3.4099 C   0  0  0  0  0  0  0  0  0  0  0  0
  1  2  2  0  0  0  0
  1  4  1  0  0  0  0
  2  3  1  0  0  0  0
  3  6  1  0  0  0  0
  3  8  2  0  0  0  0
  4  5  1  0  0  0  0
  4  7  2  0  0  0  0
  7  8  1  0  0  0  0
  7 10  1  0  0  0  0
  8  9  1  0  0  0  0
  9 12  2  0  0  0  0
  9 14  1  0  0  0  0
 10 13  1  0  0  0  0
 10 11  2  0  0  0  0
 13 14  2  0  0  0  0
 13 16  1  0  0  0  0
 14 15  1  0  0  0  0
 15 18  2  0  0  0  0
 15 23  1  0  0  0  0
 16 17  2  0  0  0  0
 17 18  1  0  0  0  0
 17 22  1  0  0  0  0
 18 19  1  0  0  0  0
 19 27  1  0  0  0  0
 19 20  1  0  0  0  0
 20 21  1  0  0  0  0
 21 25  1  0  0  0  0
 21 22  1  0  0  0  0
 21 24  1  0  0  0  0
 22 48  1  0  0  0  0
 25 26  1  0  0  0  0
 27 28  1  0  0  0  0
 28 29  1  0  0  0  0
 28 33  1  0  0  0  0
 29 30  1  0  0  0  0
 30 31  1  0  0  0  0
 30 34  1  0  0  0  0
 31 32  1  0  0  0  0
 31 35  1  0  0  0  0
 32 33  1  0  0  0  0
 32 36  1  0  0  0  0
 35 39  1  0  0  0  0
 36 37  1  0  0  0  0
 36 38  1  0  0  0  0
 39 40  1  0  0  0  0
 39 44  1  0  0  0  0
 40 41  1  0  0  0  0
 41 42  1  0  0  0  0
 41 45  1  0  0  0  0
 42 43  1  0  0  0  0
 42 46  1  0  0  0  0
 43 44  1  0  0  0  0
 43 47  1  0  0  0  0
 48 49  1  0  0  0  0
 48 50  2  0  0  0  0
 49 51  1  0  0  0  0
M  END
