
  -OEChem-10081705543D

  9  8  0     0  0  0  0  0  0999 V2000
    0.8338   -2.3243   -0.1297 N   0  3  0  0  0  0  0  0  0  0  0  0
    0.3660   -3.5567   -0.0831 N   0  0  0  0  0  0  0  0  0  0  0  0
    2.2051   -2.2299   -0.0790 C   0  0  0  0  0  0  0  0  0  0  0  0
    2.6227   -3.5313    0.0469 C   0  0  0  0  0  0  0  0  0  0  0  0
    1.5206   -4.3534    0.0335 O   0  0  0  0  0  0  0  0  0  0  0  0
    3.8869   -3.9504    0.1881 N   0  5  0  0  0  0  0  0  0  0  0  0
   -0.0555   -1.1777   -0.1646 C   0  0  0  0  0  0  0  0  0  0  0  0
    7.0250   -0.1563    0.0000 Cl  0  0  0  0  0  0  0  0  0  0  0  0
   -0.4837   -0.7734    1.2364 C   0  0  0  0  0  0  0  0  0  0  0  0
  1  2  2  0  0  0  0
  1  3  1  0  0  0  0
  1  7  1  0  0  0  0
  2  5  1  0  0  0  0
  3  4  2  0  0  0  0
  4  6  1  0  0  0  0
  4  5  1  0  0  0  0
  7  9  1  0  0  0  0
M  CHG  2   1   1   6  -1
M  END
