
  -OEChem-10081705543D

  8  7  0     0  0  0  0  0  0999 V2000
    0.8212   -2.2161    0.0064 N   0  3  0  0  0  0  0  0  0  0  0  0
    0.3243   -3.4358    0.0019 N   0  0  0  0  0  0  0  0  0  0  0  0
    2.1930   -2.1554    0.0019 C   0  0  0  0  0  0  0  0  0  0  0  0
    2.5880   -3.4712   -0.0003 C   0  0  0  0  0  0  0  0  0  0  0  0
    1.4630   -4.2642    0.0033 O   0  0  0  0  0  0  0  0  0  0  0  0
    3.8445   -3.9389   -0.0260 N   0  5  0  0  0  0  0  0  0  0  0  0
   -0.0297   -1.0507    0.0015 C   0  0  0  0  0  0  0  0  0  0  0  0
    7.0618   -0.0106    0.0000 Cl  0  0  0  0  0  0  0  0  0  0  0  0
  1  2  2  0  0  0  0
  1  3  1  0  0  0  0
  1  7  1  0  0  0  0
  2  5  1  0  0  0  0
  3  4  2  0  0  0  0
  4  6  1  0  0  0  0
  4  5  1  0  0  0  0
M  CHG  2   1   1   6  -1
M  END
