
  -OEChem-10081705533D

 17 18  0     0  0  0  0  0  0999 V2000
    4.0774   -2.0602   -0.0207 N   0  3  0  0  0  0  0  0  0  0  0  0
    2.7099   -2.0558    0.0084 N   0  0  0  0  0  0  0  0  0  0  0  0
    4.7590   -2.4761   -0.9111 C   0  0  0  0  0  0  0  0  0  0  0  0
    4.8669   -1.5384    0.9389 N   0  5  0  0  0  0  0  0  0  0  0  0
    1.9727   -0.8158   -0.0050 C   0  0  0  0  0  0  0  0  0  0  0  0
    1.9546   -3.2863    0.0190 C   0  0  0  0  0  0  0  0  0  0  0  0
    6.1928   -2.2741   -0.5914 C   0  0  0  0  0  0  0  0  0  0  0  0
    6.1718   -1.6211    0.6109 O   0  0  0  0  0  0  0  0  0  0  0  0
    0.4549   -0.8186    0.0023 C   0  0  0  0  0  0  0  0  0  0  0  0
    0.4351   -3.2581    0.0043 C   0  0  0  0  0  0  0  0  0  0  0  0
    7.1734   -2.6898   -1.3090 N   0  0  0  0  0  0  0  0  0  0  0  0
   -0.2506   -2.0325    0.0105 O   0  0  0  0  0  0  0  0  0  0  0  0
    8.4649   -2.4409   -0.9113 C   0  0  0  0  0  0  0  0  0  0  0  0
    8.6617   -2.6339    0.4312 O   0  0  0  0  0  0  0  0  0  0  0  0
    9.3863   -2.2210   -1.6907 O   0  0  0  0  0  0  0  0  0  0  0  0
    9.5225   -1.6658    1.0505 C   0  0  0  0  0  0  0  0  0  0  0  0
   10.9254   -2.2387    1.1514 C   0  0  0  0  0  0  0  0  0  0  0  0
  1  2  1  0  0  0  0
  1  3  2  0  0  0  0
  1  4  1  0  0  0  0
  2  5  1  0  0  0  0
  2  6  1  0  0  0  0
  3  7  1  0  0  0  0
  4  8  1  0  0  0  0
  5  9  1  0  0  0  0
  6 10  1  0  0  0  0
  7 11  2  0  0  0  0
  7  8  1  0  0  0  0
  9 12  1  0  0  0  0
 10 12  1  0  0  0  0
 11 13  1  0  0  0  0
 13 14  1  0  0  0  0
 13 15  2  0  0  0  0
 14 16  1  0  0  0  0
 16 17  1  0  0  0  0
M  CHG  2   1   1   4  -1
M  END
