
  -OEChem-10081705533D

 45 47  0     1  0  0  0  0  0999 V2000
    7.0190   -8.2686   -1.4027 C   0  0  0  0  0  0  0  0  0  0  0  0
    6.0067   -7.2803   -1.3726 C   0  0  0  0  0  0  0  0  0  0  0  0
    6.0100   -6.2574   -2.3396 C   0  0  0  0  0  0  0  0  0  0  0  0
    7.0864   -6.0930   -3.2157 C   0  0  0  0  0  0  0  0  0  0  0  0
    8.1419   -6.9791   -3.1550 C   0  0  0  0  0  0  0  0  0  0  0  0
    8.0935   -8.0509   -2.2803 C   0  0  0  0  0  0  0  0  0  0  0  0
    7.2632   -9.4275   -0.0582 P   0  0  0  0  0  0  0  0  0  0  0  0
    5.3202   -6.9473    0.2322 P   0  0  0  0  0  0  0  0  0  0  0  0
    8.8929  -10.2260   -0.1740 C   0  0  0  0  0  0  0  0  0  0  0  0
    8.8551  -11.1428    1.0673 C   0  0  0  0  0  0  0  0  0  0  0  0
    7.4371  -11.7366    1.1635 C   0  0  0  0  0  0  0  0  0  0  0  0
    6.5135  -11.1466    0.0528 C   0  0  0  0  0  0  0  0  0  0  0  0
    3.5517   -6.8503    0.7353 C   0  0  0  0  0  0  0  0  0  0  0  0
    3.1718   -5.3705    0.9119 C   0  0  0  0  0  0  0  0  0  0  0  0
    4.3370   -4.4941    0.4590 C   0  0  0  0  0  0  0  0  0  0  0  0
    5.6579   -5.2380    0.6499 C   0  0  0  0  0  0  0  0  0  0  0  0
    4.8089   -9.2671   -0.2670 Rh  0  3  0  0  0  0  0  0  0  0  0  0
    5.0501  -11.3516    0.4156 C   0  0  0  0  0  0  0  0  0  0  0  0
    2.5630   -7.6628   -0.0673 C   0  0  0  0  0  0  0  0  0  0  0  0
    9.3256  -11.1136   -1.3822 C   0  0  0  0  0  0  0  0  0  0  0  0
    6.2864   -5.0758    2.0351 C   0  0  0  0  0  0  0  0  0  0  0  0
    4.2146  -11.6602   -0.8172 C   0  0  0  0  0  0  0  0  0  0  0  0
    8.4841  -11.2178   -2.6458 C   0  0  0  0  0  0  0  0  0  0  0  0
    2.1911   -8.9696    0.6041 C   0  0  0  0  0  0  0  0  0  0  0  0
    6.9287   -6.3553    2.5313 C   0  0  0  0  0  0  0  0  0  0  0  0
   10.5153   -2.4893    0.7790 C   0  0  0  0  0  0  0  0  0  0  0  0
   11.3957   -1.5607    1.2315 F   0  0  0  0  0  0  0  0  0  0  0  0
    9.3536   -2.2539    1.4380 F   0  0  0  0  0  0  0  0  0  0  0  0
   10.2858   -2.2298   -0.5314 F   0  0  0  0  0  0  0  0  0  0  0  0
   11.1054   -4.1411    1.0238 S   0  0  0  0  0  0  0  0  0  0  0  0
   10.9598   -4.7561   -0.3019 O   0  0  0  0  0  0  0  0  0  0  0  0
   10.1999   -4.6649    2.0448 O   0  0  0  0  0  0  0  0  0  0  0  0
   12.4823   -3.9450    1.4560 O   0  5  0  0  0  0  0  0  0  0  0  0
   -0.0793   -4.0488    1.4383 C   0  0  0  0  0  0  0  0  0  0  0  0
    0.5059   -0.9967    0.0703 C   0  0  0  0  0  0  0  0  0  0  0  0
    0.2395   -3.0206   -1.5005 C   0  0  0  0  0  0  0  0  0  0  0  0
    0.8704   -1.9217   -1.0552 C   0  0  0  0  0  0  0  0  0  0  0  0
    0.0958   -2.7819    1.8384 C   0  0  0  0  0  0  0  0  0  0  0  0
   -0.4052   -1.5283    1.1909 C   0  0  0  0  0  0  0  0  0  0  0  0
   -0.7664   -4.5778    0.2127 C   0  0  0  0  0  0  0  0  0  0  0  0
   -1.0152   -3.6364   -0.9610 C   0  0  0  0  0  0  0  0  0  0  0  0
    0.3510   -4.8186    2.0715 H   0  0  0  0  0  0  0  0  0  0  0  0
    0.6567   -2.6307    2.7654 H   0  0  0  0  0  0  0  0  0  0  0  0
    1.7600   -1.6218   -1.6148 H   0  0  0  0  0  0  0  0  0  0  0  0
    0.7035   -3.5597   -2.3212 H   0  0  0  0  0  0  0  0  0  0  0  0
  1  2  2  0  0  0  0
  1  6  1  0  0  0  0
  1  7  1  0  0  0  0
  2  3  1  0  0  0  0
  2  8  1  0  0  0  0
  3  4  2  0  0  0  0
  4  5  1  0  0  0  0
  5  6  2  0  0  0  0
  7  9  1  0  0  0  0
  7 12  1  0  0  0  0
  7 17  1  0  0  0  0
  8 13  1  0  0  0  0
  8 16  1  0  0  0  0
  8 17  1  0  0  0  0
  9 10  1  0  0  0  0
  9 20  1  0  0  0  0
 10 11  1  0  0  0  0
 11 12  1  0  0  0  0
 12 18  1  0  0  0  0
 13 14  1  0  0  0  0
 13 19  1  0  0  0  0
 14 15  1  0  0  0  0
 15 16  1  0  0  0  0
 16 21  1  0  0  0  0
 18 22  1  0  0  0  0
 19 24  1  0  0  0  0
 20 23  1  0  0  0  0
 21 25  1  0  0  0  0
 26 27  1  0  0  0  0
 26 28  1  0  0  0  0
 26 29  1  0  0  0  0
 26 30  1  0  0  0  0
 30 31  2  0  0  0  0
 30 32  2  0  0  0  0
 30 33  1  0  0  0  0
 34 38  2  0  0  0  0
 34 40  1  0  0  0  0
 35 39  1  0  0  0  0
 35 37  1  0  0  0  0
 36 37  2  0  0  0  0
 36 41  1  0  0  0  0
 38 39  1  0  0  0  0
 40 41  1  0  0  0  0
 34 42  1  0  0  0  0
 38 43  1  0  0  0  0
 37 44  1  0  0  0  0
 36 45  1  0  0  0  0
M  CHG  2  17   1  33  -1
M  END
