
  -OEChem-10081705533D

 28 30  0     1  0  0  0  0  0999 V2000
    0.6844   -5.8367    3.0926 C   0  0  0  0  0  0  0  0  0  0  0  0
    1.1899   -5.0981    1.9667 C   0  0  0  0  0  0  0  0  0  0  0  0
    0.3620   -4.0333    1.5144 C   0  0  0  0  0  0  0  0  0  0  0  0
   -0.7870   -3.6049    2.1829 C   0  0  0  0  0  0  0  0  0  0  0  0
   -1.1833   -4.2436    3.3410 C   0  0  0  0  0  0  0  0  0  0  0  0
   -0.4244   -5.3105    3.8088 C   0  0  0  0  0  0  0  0  0  0  0  0
    1.3490   -7.4667    3.4292 P   0  0  0  0  0  0  0  0  0  0  0  0
    2.6297   -5.5714    0.8014 P   0  0  0  0  0  0  0  0  0  0  0  0
   -0.2918   -9.0838    2.5399 C   0  0  0  0  0  0  0  0  0  0  0  0
   -0.5067  -10.4818    3.7041 C   0  0  0  0  0  0  0  0  0  0  0  0
    0.1320   -9.9594    5.3387 C   0  0  0  0  0  0  0  0  0  0  0  0
    1.2288   -8.4868    5.4416 C   0  0  0  0  0  0  0  0  0  0  0  0
    2.9363   -3.8173   -0.1136 C   0  0  0  0  0  0  0  0  0  0  0  0
    4.1755   -4.2181   -0.8873 C   0  0  0  0  0  0  0  0  0  0  0  0
    5.1630   -4.7484    0.1505 C   0  0  0  0  0  0  0  0  0  0  0  0
    4.4356   -5.4471    1.3932 C   0  0  0  0  0  0  0  0  0  0  0  0
    5.3306   -6.6886    1.6977 C   0  0  0  0  0  0  0  0  0  0  0  0
    4.6722   -7.8438    2.4388 C   0  0  0  0  0  0  0  0  0  0  0  0
    6.6271   -6.2652    2.4333 C   0  0  0  0  0  0  0  0  0  0  0  0
    3.1199   -2.6343    0.8857 C   0  0  0  0  0  0  0  0  0  0  0  0
    5.1641   -1.4559    1.9442 C   0  0  0  0  0  0  0  0  0  0  0  0
    4.3236   -1.6931    0.6928 C   0  0  0  0  0  0  0  0  0  0  0  0
    0.9214   -7.4793    6.5842 C   0  0  0  0  0  0  0  0  0  0  0  0
    2.8801   -7.0346    8.0669 C   0  0  0  0  0  0  0  0  0  0  0  0
    1.9966   -6.4535    6.9776 C   0  0  0  0  0  0  0  0  0  0  0  0
    0.9358   -9.1415    3.2445 C   0  0  0  0  0  0  0  0  0  0  0  0
    1.9108  -10.4263    3.4192 C   0  0  0  0  0  0  0  0  0  0  0  0
   -0.7920   -8.3277    3.9797 C   0  0  0  0  0  0  0  0  0  0  0  0
  1  2  2  0  0  0  0
  1  7  1  0  0  0  0
  1  6  1  0  0  0  0
  2  3  1  0  0  0  0
  2  8  1  0  0  0  0
  3  4  2  0  0  0  0
  4  5  1  0  0  0  0
  5  6  2  0  0  0  0
  7  9  1  0  0  0  0
  7 12  1  0  0  0  0
  8 13  1  0  0  0  0
  8 16  1  0  0  0  0
  9 10  1  0  0  0  0
  9 26  1  0  0  0  0
 10 11  1  0  0  0  0
 11 12  1  0  0  0  0
 12 23  1  0  0  0  0
 13 14  1  0  0  0  0
 13 20  1  0  0  0  0
 14 15  1  0  0  0  0
 15 16  1  0  0  0  0
 16 17  1  0  0  0  0
 17 18  1  0  0  0  0
 17 19  1  0  0  0  0
 20 22  1  0  0  0  0
 21 22  1  0  0  0  0
 23 25  1  0  0  0  0
 24 25  1  0  0  0  0
 26 27  1  0  0  0  0
 26 28  1  0  0  0  0
M  END
