
  -OEChem-10081705543D

 18 19  0     0  0  0  0  0  0999 V2000
    5.4664   -8.9430    0.1087 O   0  5  0  0  0  0  0  0  0  0  0  0
    3.2946   -8.3473    0.0342 O   0  0  0  0  0  0  0  0  0  0  0  0
    2.5223   -7.1832   -0.0500 N   0  0  0  0  0  0  0  0  0  0  0  0
    3.4089   -6.2227   -0.1075 N   0  3  0  0  0  0  0  0  0  0  0  0
    2.8191    2.0383    0.7160 N   0  3  0  0  0  0  0  0  0  0  0  0
    2.9163    2.6719    1.8574 N   0  0  0  0  0  0  0  0  0  0  0  0
    2.1834    3.8461    1.6517 O   0  0  0  0  0  0  0  0  0  0  0  0
    0.9861    4.8397    0.0207 O   0  5  0  0  0  0  0  0  0  0  0  0
    1.6523    3.8815    0.3543 C   0  0  0  0  0  0  0  0  0  0  0  0
    2.0837    2.6977   -0.2332 C   0  0  0  0  0  0  0  0  0  0  0  0
    4.7089   -6.6520   -0.0740 C   0  0  0  0  0  0  0  0  0  0  0  0
    4.6618   -8.0374    0.0303 C   0  0  0  0  0  0  0  0  0  0  0  0
    3.0204   -4.8239   -0.1657 C   0  0  0  0  0  0  0  0  0  0  0  0
    2.8969   -4.2378    1.2389 C   0  0  0  0  0  0  0  0  0  0  0  0
    2.2313   -2.8635    1.2482 C   0  0  0  0  0  0  0  0  0  0  0  0
    3.1732   -1.7509    0.7903 C   0  0  0  0  0  0  0  0  0  0  0  0
    2.4954   -0.3863    0.9144 C   0  0  0  0  0  0  0  0  0  0  0  0
    3.4368    0.7427    0.5042 C   0  0  0  0  0  0  0  0  0  0  0  0
  1 12  1  0  0  0  0
  2  3  1  0  0  0  0
  2 12  1  0  0  0  0
  3  4  2  0  0  0  0
  4 11  1  0  0  0  0
  4 13  1  0  0  0  0
  5  6  2  0  0  0  0
  5 10  1  0  0  0  0
  5 18  1  0  0  0  0
  6  7  1  0  0  0  0
  7  9  1  0  0  0  0
  8  9  1  0  0  0  0
  9 10  2  0  0  0  0
 11 12  2  0  0  0  0
 13 14  1  0  0  0  0
 14 15  1  0  0  0  0
 15 16  1  0  0  0  0
 16 17  1  0  0  0  0
 17 18  1  0  0  0  0
M  CHG  4   1  -1   4   1   5   1   8  -1
M  END
