
  -OEChem-10081705543D

 16 17  0     0  0  0  0  0  0999 V2000
   -1.8951   -0.2505   -0.0230 N   0  3  0  0  0  0  0  0  0  0  0  0
   -2.6774   -1.1677    0.4826 N   0  0  0  0  0  0  0  0  0  0  0  0
   -3.9661   -0.6620    0.2759 O   0  0  0  0  0  0  0  0  0  0  0  0
   -4.9538    1.1746   -0.5782 O   0  5  0  0  0  0  0  0  0  0  0  0
    0.0091   -1.8120    0.1534 C   0  0  0  0  0  0  0  0  0  0  0  0
    1.3845   -2.0378    0.2121 C   0  0  0  0  0  0  0  0  0  0  0  0
   -0.4645   -0.5023    0.0412 C   0  0  0  0  0  0  0  0  0  0  0  0
    0.4217    0.5766   -0.0181 C   0  0  0  0  0  0  0  0  0  0  0  0
    2.2787   -0.9663    0.1489 C   0  0  0  0  0  0  0  0  0  0  0  0
    1.8047    0.3473    0.0279 C   0  0  0  0  0  0  0  0  0  0  0  0
   -3.9128    0.5932   -0.3452 C   0  0  0  0  0  0  0  0  0  0  0  0
   -2.5546    0.8360   -0.5337 C   0  0  0  0  0  0  0  0  0  0  0  0
    2.7706    1.4940   -0.0681 C   0  0  0  0  0  0  0  0  0  0  0  0
    3.3321    1.8129    1.1306 F   0  0  0  0  0  0  0  0  0  0  0  0
    3.8089    1.2401   -0.9128 F   0  0  0  0  0  0  0  0  0  0  0  0
    2.2013    2.6437   -0.5278 F   0  0  0  0  0  0  0  0  0  0  0  0
  1  2  2  0  0  0  0
  1  7  1  0  0  0  0
  1 12  1  0  0  0  0
  2  3  1  0  0  0  0
  3 11  1  0  0  0  0
  4 11  1  0  0  0  0
  5  6  2  0  0  0  0
  5  7  1  0  0  0  0
  6  9  1  0  0  0  0
  7  8  2  0  0  0  0
  8 10  1  0  0  0  0
  9 10  2  0  0  0  0
 10 13  1  0  0  0  0
 11 12  2  0  0  0  0
 13 14  1  0  0  0  0
 13 15  1  0  0  0  0
 13 16  1  0  0  0  0
M  CHG  2   1   1   4  -1
M  END
