
  -OEChem-10081705543D

 15 16  0     0  0  0  0  0  0999 V2000
   -2.3458   -5.9055    2.5570 O   0  5  0  0  0  0  0  0  0  0  0  0
   -0.4903   -4.6803    2.9247 O   0  0  0  0  0  0  0  0  0  0  0  0
    0.6058   -4.1826    2.2105 N   0  0  0  0  0  0  0  0  0  0  0  0
    0.4202   -4.6342    0.9964 N   0  3  0  0  0  0  0  0  0  0  0  0
    3.8293   -4.4018    0.0162 C   0  0  0  0  0  0  0  0  0  0  0  0
    5.0266   -5.1239    0.0183 C   0  0  0  0  0  0  0  0  0  0  0  0
    2.5948   -5.0662   -0.0153 C   0  0  0  0  0  0  0  0  0  0  0  0
    4.9967   -6.5184   -0.0131 C   0  0  0  0  0  0  0  0  0  0  0  0
    2.5817   -6.4671   -0.0416 C   0  0  0  0  0  0  0  0  0  0  0  0
    3.7743   -7.1895   -0.0577 C   0  0  0  0  0  0  0  0  0  0  0  0
   -0.7185   -5.3833    0.8432 C   0  0  0  0  0  0  0  0  0  0  0  0
   -1.3353   -5.4218    2.0877 C   0  0  0  0  0  0  0  0  0  0  0  0
    1.3093   -4.2862   -0.0978 C   0  0  0  0  0  0  0  0  0  0  0  0
    6.1906   -7.1837   -0.1094 O   0  0  0  0  0  0  0  0  0  0  0  0
    6.3007   -8.2657    0.8157 C   0  0  0  0  0  0  0  0  0  0  0  0
  1 12  1  0  0  0  0
  2  3  1  0  0  0  0
  2 12  1  0  0  0  0
  3  4  2  0  0  0  0
  4 11  1  0  0  0  0
  4 13  1  0  0  0  0
  5  6  2  0  0  0  0
  5  7  1  0  0  0  0
  6  8  1  0  0  0  0
  7  9  2  0  0  0  0
  7 13  1  0  0  0  0
  8 10  2  0  0  0  0
  8 14  1  0  0  0  0
  9 10  1  0  0  0  0
 11 12  2  0  0  0  0
 14 15  1  0  0  0  0
M  CHG  2   1  -1   4   1
M  END
