
  -OEChem-10081705543D

 22 24  0     0  0  0  0  0  0999 V2000
    0.5888   -6.1583   -0.7276 O   0  0  0  0  0  0  0  0  0  0  0  0
    0.4844   -3.6736   -0.3198 O   0  0  0  0  0  0  0  0  0  0  0  0
   10.1076   -4.3652   -1.1406 O   0  5  0  0  0  0  0  0  0  0  0  0
    6.3937   -4.6316   -4.6094 C   0  0  0  0  0  0  0  0  0  0  0  0
    6.5452   -2.3075   -3.9668 C   0  0  0  0  0  0  0  0  0  0  0  0
    6.8853   -5.0132   -3.3600 C   0  0  0  0  0  0  0  0  0  0  0  0
    7.0357   -2.6832   -2.7158 C   0  0  0  0  0  0  0  0  0  0  0  0
    4.7651   -3.6358    0.2516 C   0  0  0  0  0  0  0  0  0  0  0  0
    4.8578   -6.0547   -0.1025 C   0  0  0  0  0  0  0  0  0  0  0  0
    3.3735   -3.6940    0.2627 C   0  0  0  0  0  0  0  0  0  0  0  0
    3.4665   -6.1073   -0.0829 C   0  0  0  0  0  0  0  0  0  0  0  0
    7.5539   -5.0522    1.0629 N   0  0  0  0  0  0  0  0  0  0  0  0
    8.8961   -4.9198    0.6790 O   0  0  0  0  0  0  0  0  0  0  0  0
    6.2235   -3.2807   -4.9122 C   0  0  0  0  0  0  0  0  0  0  0  0
    8.9980   -4.5260   -0.6701 C   0  0  0  0  0  0  0  0  0  0  0  0
    7.2071   -4.0380   -2.4100 C   0  0  0  0  0  0  0  0  0  0  0  0
    5.4751   -4.8184    0.0643 C   0  0  0  0  0  0  0  0  0  0  0  0
    2.7347   -4.9262    0.0846 C   0  0  0  0  0  0  0  0  0  0  0  0
    7.6735   -4.4253   -1.1029 C   0  0  0  0  0  0  0  0  0  0  0  0
    6.9029   -4.7525   -0.0230 N   0  3  0  0  0  0  0  0  0  0  0  0
    0.9673   -4.9913    0.0455 S   0  0  0  0  0  0  0  0  0  0  0  0
    0.5141   -5.2870    1.7339 C   0  0  0  0  0  0  0  0  0  0  0  0
  1 21  2  0  0  0  0
  2 21  2  0  0  0  0
  3 15  1  0  0  0  0
  4  6  1  0  0  0  0
  4 14  2  0  0  0  0
  5  7  2  0  0  0  0
  5 14  1  0  0  0  0
  6 16  2  0  0  0  0
  7 16  1  0  0  0  0
  8 10  1  0  0  0  0
  8 17  2  0  0  0  0
  9 11  2  0  0  0  0
  9 17  1  0  0  0  0
 10 18  2  0  0  0  0
 11 18  1  0  0  0  0
 12 13  1  0  0  0  0
 12 20  2  0  0  0  0
 13 15  1  0  0  0  0
 15 19  2  0  0  0  0
 16 19  1  0  0  0  0
 17 20  1  0  0  0  0
 18 21  1  0  0  0  0
 19 20  1  0  0  0  0
 21 22  1  0  0  0  0
M  CHG  2   3  -1  20   1
M  END
