
  -OEChem-10081705543D

 19 21  0     0  0  0  0  0  0999 V2000
    1.5478   -0.5440   -0.5310 O   0  5  0  0  0  0  0  0  0  0  0  0
   -3.3121    0.1828    1.4743 C   0  0  0  0  0  0  0  0  0  0  0  0
   -2.4535    1.7293   -0.1693 C   0  0  0  0  0  0  0  0  0  0  0  0
   -2.4542   -0.8094    0.9918 C   0  0  0  0  0  0  0  0  0  0  0  0
   -1.6033    0.7361   -0.6616 C   0  0  0  0  0  0  0  0  0  0  0  0
   -3.2354   -2.9307   -1.8238 C   0  0  0  0  0  0  0  0  0  0  0  0
   -2.3908   -4.8162   -0.5416 C   0  0  0  0  0  0  0  0  0  0  0  0
   -4.4541   -3.5985   -1.9903 C   0  0  0  0  0  0  0  0  0  0  0  0
   -3.6092   -5.4796   -0.7160 C   0  0  0  0  0  0  0  0  0  0  0  0
    0.1056   -3.5797   -1.1954 N   0  0  0  0  0  0  0  0  0  0  0  0
    1.1701   -2.6872   -1.0664 O   0  0  0  0  0  0  0  0  0  0  0  0
   -3.3052    1.4532    0.8992 C   0  0  0  0  0  0  0  0  0  0  0  0
    0.7181   -1.4211   -0.6763 C   0  0  0  0  0  0  0  0  0  0  0  0
   -1.5854   -0.5372   -0.0737 C   0  0  0  0  0  0  0  0  0  0  0  0
   -2.2175   -3.5406   -1.0867 C   0  0  0  0  0  0  0  0  0  0  0  0
   -4.6356   -4.8666   -1.4353 C   0  0  0  0  0  0  0  0  0  0  0  0
   -0.6724   -1.5600   -0.5453 C   0  0  0  0  0  0  0  0  0  0  0  0
   -0.9481   -2.8594   -0.9061 N   0  3  0  0  0  0  0  0  0  0  0  0
   -6.2861   -5.7628   -1.6626 Br  0  0  0  0  0  0  0  0  0  0  0  0
  1 13  1  0  0  0  0
  2  4  1  0  0  0  0
  2 12  2  0  0  0  0
  3  5  2  0  0  0  0
  3 12  1  0  0  0  0
  4 14  2  0  0  0  0
  5 14  1  0  0  0  0
  6  8  1  0  0  0  0
  6 15  2  0  0  0  0
  7  9  2  0  0  0  0
  7 15  1  0  0  0  0
  8 16  2  0  0  0  0
  9 16  1  0  0  0  0
 10 11  1  0  0  0  0
 10 18  2  0  0  0  0
 11 13  1  0  0  0  0
 13 17  2  0  0  0  0
 14 17  1  0  0  0  0
 15 18  1  0  0  0  0
 16 19  1  0  0  0  0
 17 18  1  0  0  0  0
M  CHG  2   1  -1  18   1
M  END
