9589526
  -OEChem-10081705543D

 34 36  0     1  0  0  0  0  0999 V2000
    2.3965    1.2760   -2.9003 O   0  0  0  0  0  0  0  0  0  0  0  0
   -5.2118   -1.7525    1.1349 O   0  0  0  0  0  0  0  0  0  0  0  0
   -6.6953   -0.4519    0.3281 O   0  0  0  0  0  0  0  0  0  0  0  0
    0.3026    1.7112   -0.9191 O   0  5  0  0  0  0  0  0  0  0  0  0
   -5.4259   -4.3251    3.7644 N   0  0  0  0  0  0  0  0  0  0  0  0
    4.0121    2.6786   -3.0439 N   0  3  0  0  0  0  0  0  0  0  0  0
    3.6829    1.4255   -2.9610 N   0  0  0  0  0  0  0  0  0  0  0  0
    0.5332    2.6588   -2.8868 N   0  0  0  0  0  0  0  0  0  0  0  0
   -1.4916    2.2247   -2.0954 N   0  0  0  0  0  0  0  0  0  0  0  0
    5.3787    3.1128   -3.1252 C   0  0  1  0  0  0  0  0  0  0  0  0
    6.1799    2.6533   -1.8632 C   0  0  0  0  0  0  0  0  0  0  0  0
    7.6018    3.0543   -1.6549 C   0  0  0  0  0  0  0  0  0  0  0  0
    5.9373    2.6056   -4.4863 C   0  0  0  0  0  0  0  0  0  0  0  0
   -4.8742   -3.5786    2.5836 C   0  0  0  0  0  0  0  0  0  0  0  0
   -4.9042   -5.7252    3.9127 C   0  0  0  0  0  0  0  0  0  0  0  0
   -5.4215   -3.5293    5.0397 C   0  0  0  0  0  0  0  0  0  0  0  0
   -5.8845   -2.6212    1.9031 C   0  0  0  0  0  0  0  0  0  0  0  0
    2.8825    3.4151   -3.0478 C   0  0  0  0  0  0  0  0  0  0  0  0
    8.3227    2.4714   -0.5817 C   0  0  0  0  0  0  0  0  0  0  0  0
    8.2930    3.9801   -2.4740 C   0  0  0  0  0  0  0  0  0  0  0  0
   -5.5726   -6.7709    2.9948 C   0  0  0  0  0  0  0  0  0  0  0  0
   -6.6411   -3.7692    5.9533 C   0  0  0  0  0  0  0  0  0  0  0  0
    1.8421    2.5042   -2.9505 C   0  0  0  0  0  0  0  0  0  0  0  0
    9.6888    2.7457   -0.3794 C   0  0  0  0  0  0  0  0  0  0  0  0
    9.6632    4.2409   -2.2968 C   0  0  0  0  0  0  0  0  0  0  0  0
   10.3640    3.6161   -1.2521 C   0  0  0  0  0  0  0  0  0  0  0  0
   -5.5168   -0.7704    0.4313 C   0  0  0  0  0  0  0  0  0  0  0  0
   -4.5143   -0.0374   -0.2123 C   0  0  0  0  0  0  0  0  0  0  0  0
   -2.4199    1.4701   -1.4970 C   0  0  0  0  0  0  0  0  0  0  0  0
   -4.7635    1.2200   -0.8208 C   0  0  0  0  0  0  0  0  0  0  0  0
   -3.1867   -0.5255   -0.2833 C   0  0  0  0  0  0  0  0  0  0  0  0
   -3.7424    1.9572   -1.4523 C   0  0  0  0  0  0  0  0  0  0  0  0
   -2.1693    0.2012   -0.9206 C   0  0  0  0  0  0  0  0  0  0  0  0
   -0.2022    2.1914   -1.9428 C   0  0  0  0  0  0  0  0  0  0  0  0
  1  7  1  0  0  0  0
  1 23  1  0  0  0  0
  2 17  1  0  0  0  0
  2 27  1  0  0  0  0
  3 27  2  0  0  0  0
  4 34  1  0  0  0  0
  5 14  1  0  0  0  0
  5 15  1  0  0  0  0
  5 16  1  0  0  0  0
  6  7  2  0  0  0  0
  6 10  1  0  0  0  0
  6 18  1  0  0  0  0
  8 23  1  0  0  0  0
  8 34  2  0  0  0  0
  9 29  1  0  0  0  0
  9 34  1  0  0  0  0
 10 11  1  0  0  0  0
 10 13  1  0  0  0  0
 11 12  1  0  0  0  0
 12 19  2  0  0  0  0
 12 20  1  0  0  0  0
 14 17  1  0  0  0  0
 15 21  1  0  0  0  0
 16 22  1  0  0  0  0
 18 23  2  0  0  0  0
 19 24  1  0  0  0  0
 20 25  2  0  0  0  0
 24 26  2  0  0  0  0
 25 26  1  0  0  0  0
 27 28  1  0  0  0  0
 28 30  2  0  0  0  0
 28 31  1  0  0  0  0
 29 32  2  0  0  0  0
 29 33  1  0  0  0  0
 30 32  1  0  0  0  0
 31 33  2  0  0  0  0
M  CHG  2   4  -1   6   1
M  END
