10010737
  -OEChem-10081705533D

 60 66  0     1  0  0  0  0  0999 V2000
   -1.7348    0.5044   -1.6023 O   0  0  0  0  0  0  0  0  0  0  0  0
    0.0218   -0.5347   -2.9552 O   0  0  0  0  0  0  0  0  0  0  0  0
    3.5934   -1.6651   -2.1045 O   0  0  0  0  0  0  0  0  0  0  0  0
   -2.1891    3.4117   -2.4271 O   0  0  0  0  0  0  0  0  0  0  0  0
    5.7359   -2.3801   -1.2490 O   0  0  0  0  0  0  0  0  0  0  0  0
   -5.1947    5.5357   -1.2568 O   0  0  0  0  0  0  0  0  0  0  0  0
   -3.5452   -1.1789   -0.1704 O   0  0  0  0  0  0  0  0  0  0  0  0
    5.1847   -2.5617    1.9465 O   0  0  0  0  0  0  0  0  0  0  0  0
    3.8507   -4.8493    1.6022 O   0  0  0  0  0  0  0  0  0  0  0  0
   -4.9229    4.0050   -2.7499 O   0  0  0  0  0  0  0  0  0  0  0  0
   -5.6434   -2.5825    0.1633 O   0  0  0  0  0  0  0  0  0  0  0  0
   -8.5846    1.7450    0.1291 O   0  0  0  0  0  0  0  0  0  0  0  0
    7.0413   -1.7737    3.2227 O   0  0  0  0  0  0  0  0  0  0  0  0
   -7.7495   -4.0871    0.1298 O   0  0  0  0  0  0  0  0  0  0  0  0
  -10.7595    0.2986    0.1218 O   0  0  0  0  0  0  0  0  0  0  0  0
    7.1451    1.0012    5.4529 O   0  0  0  0  0  0  0  0  0  0  0  0
    2.4827    0.5275   -0.1994 N   0  0  0  0  0  0  0  0  0  0  0  0
    3.6354   -0.9363    3.3770 N   0  0  0  0  0  0  0  0  0  0  0  0
   -2.3965    3.7318   -1.0447 C   0  0  2  0  0  0  0  0  0  0  0  0
   -2.2112    1.2262   -0.4261 C   0  0  1  0  0  0  0  0  0  0  0  0
   -1.6523    2.6596   -0.2076 C   0  0  0  0  0  0  0  0  0  0  0  0
   -3.9299    3.6584   -0.6750 C   0  0  2  0  0  0  0  0  0  0  0  0
    1.7522   -0.7252   -0.6320 C   0  0  2  0  0  0  0  0  0  0  0  0
    2.1618   -1.4316   -1.9735 C   0  0  1  0  0  0  0  0  0  0  0  0
   -0.3329    0.1787   -1.7424 C   0  0  2  0  0  0  0  0  0  0  0  0
    0.2084   -0.6745   -0.5688 C   0  0  0  0  0  0  0  0  0  0  0  0
   -3.6960    1.1194   -0.3760 C   0  0  0  0  0  0  0  0  0  0  0  0
   -4.5063    2.2824   -0.4373 C   0  0  0  0  0  0  0  0  0  0  0  0
    1.4467   -0.7482   -3.1962 C   0  0  1  0  0  0  0  0  0  0  0  0
   -1.7650    5.1490   -0.8081 C   0  0  0  0  0  0  0  0  0  0  0  0
    4.3156   -2.3008   -1.0127 C   0  0  2  0  0  0  0  0  0  0  0  0
   -4.2938   -0.1591   -0.2116 C   0  0  0  0  0  0  0  0  0  0  0  0
   -5.8939    2.1123   -0.2254 C   0  0  0  0  0  0  0  0  0  0  0  0
   -4.7252    4.4432   -1.6210 C   0  0  0  0  0  0  0  0  0  0  0  0
    3.8318   -3.7274   -0.6036 C   0  0  0  0  0  0  0  0  0  0  0  0
    1.6278   -1.4993   -4.5368 C   0  0  0  0  0  0  0  0  0  0  0  0
    4.6795   -4.3987    0.5264 C   0  0  1  0  0  0  0  0  0  0  0  0
   -5.7025   -0.3205   -0.0783 C   0  0  0  0  0  0  0  0  0  0  0  0
    5.8320   -3.4940    1.0573 C   0  0  1  0  0  0  0  0  0  0  0  0
   -0.2852    5.3655   -1.2162 C   0  0  0  0  0  0  0  0  0  0  0  0
   -6.5168    0.8469   -0.0770 C   0  0  0  0  0  0  0  0  0  0  0  0
    6.5843   -2.8642   -0.1686 C   0  0  1  0  0  0  0  0  0  0  0  0
    2.0950    1.1169    1.1164 C   0  0  0  0  0  0  0  0  0  0  0  0
    2.9276    1.5822   -1.1549 C   0  0  0  0  0  0  0  0  0  0  0  0
   -6.3341   -1.5745    0.0620 C   0  0  0  0  0  0  0  0  0  0  0  0
   -7.9110    0.7227    0.0554 C   0  0  0  0  0  0  0  0  0  0  0  0
    7.6158   -3.8323   -0.7963 C   0  0  0  0  0  0  0  0  0  0  0  0
   -7.7347   -1.7160    0.0979 C   0  0  0  0  0  0  0  0  0  0  0  0
   -8.5441   -0.5355    0.0958 C   0  0  0  0  0  0  0  0  0  0  0  0
    5.8185   -1.4158    2.5420 C   0  0  2  0  0  0  0  0  0  0  0  0
   -5.9585    6.4364   -1.8797 C   0  0  0  0  0  0  0  0  0  0  0  0
   -8.3748   -2.9918    0.1316 C   0  0  0  0  0  0  0  0  0  0  0  0
   -9.9632   -0.6782    0.1276 C   0  0  0  0  0  0  0  0  0  0  0  0
    4.9080   -0.7691    3.4856 C   0  0  0  0  0  0  0  0  0  0  0  0
   -9.7738   -3.1002    0.1639 C   0  0  0  0  0  0  0  0  0  0  0  0
  -10.5654   -1.9465    0.1617 C   0  0  0  0  0  0  0  0  0  0  0  0
    7.6950   -0.7177    3.9732 C   0  0  1  0  0  0  0  0  0  0  0  0
    5.4028    0.0061    4.4711 C   0  0  0  0  0  0  0  0  0  0  0  0
    6.7409    0.1404    4.6809 C   0  0  0  0  0  0  0  0  0  0  0  0
    8.7041   -1.4318    4.9029 C   0  0  0  0  0  0  0  0  0  0  0  0
  1 20  1  0  0  0  0
  1 25  1  0  0  0  0
  2 25  1  0  0  0  0
  2 29  1  0  0  0  0
  3 24  1  0  0  0  0
  3 31  1  0  0  0  0
  4 19  1  0  0  0  0
  5 31  1  0  0  0  0
  5 42  1  0  0  0  0
  6 34  1  0  0  0  0
  6 51  1  0  0  0  0
  7 32  1  0  0  0  0
  8 39  1  0  0  0  0
  8 50  1  0  0  0  0
  9 37  1  0  0  0  0
 10 34  2  0  0  0  0
 11 45  2  0  0  0  0
 12 46  2  0  0  0  0
 13 50  1  0  0  0  0
 13 57  1  0  0  0  0
 14 52  1  0  0  0  0
 15 53  1  0  0  0  0
 16 59  2  0  0  0  0
 17 23  1  0  0  0  0
 17 43  1  0  0  0  0
 17 44  1  0  0  0  0
 18 54  1  0  0  0  0
 19 21  1  0  0  0  0
 19 22  1  0  0  0  0
 19 30  1  0  0  0  0
 20 21  1  0  0  0  0
 20 27  1  0  0  0  0
 22 28  1  0  0  0  0
 22 34  1  0  0  0  0
 23 24  1  0  0  0  0
 23 26  1  0  0  0  0
 24 29  1  0  0  0  0
 25 26  1  0  0  0  0
 27 28  1  0  0  0  0
 27 32  2  0  0  0  0
 28 33  2  0  0  0  0
 29 36  1  0  0  0  0
 30 40  1  0  0  0  0
 31 35  1  0  0  0  0
 32 38  1  0  0  0  0
 33 41  1  0  0  0  0
 35 37  1  0  0  0  0
 37 39  1  0  0  0  0
 38 41  2  0  0  0  0
 38 45  1  0  0  0  0
 39 42  1  0  0  0  0
 41 46  1  0  0  0  0
 42 47  1  0  0  0  0
 45 48  1  0  0  0  0
 46 49  1  0  0  0  0
 48 49  1  0  0  0  0
 48 52  2  0  0  0  0
 49 53  2  0  0  0  0
 50 54  1  0  0  0  0
 52 55  1  0  0  0  0
 53 56  1  0  0  0  0
 54 58  2  0  0  0  0
 55 56  2  0  0  0  0
 57 59  1  0  0  0  0
 57 60  1  0  0  0  0
 58 59  1  0  0  0  0
M  END
