10212307
  -OEChem-10081705533D

 28 30  0     1  0  0  0  0  0999 V2000
   -2.1146   -0.0424   -0.2888 P   0  0  0  0  0  0  0  0  0  0  0  0
    1.2977   -0.0448   -0.1361 P   0  0  0  0  0  0  0  0  0  0  0  0
   -2.2127   -0.6340    1.2638 C   0  0  2  0  0  0  0  0  0  0  0  0
   -1.7805   -1.3940   -1.2256 C   0  0  1  0  0  0  0  0  0  0  0  0
    1.7597   -0.3636    1.4528 C   0  0  1  0  0  0  0  0  0  0  0  0
    2.8217   -0.0479   -0.8426 C   0  0  1  0  0  0  0  0  0  0  0  0
   -2.7648   -2.0529    1.0228 C   0  0  0  0  0  0  0  0  0  0  0  0
   -2.0450   -2.5724   -0.2387 C   0  0  0  0  0  0  0  0  0  0  0  0
    2.6043   -1.6241    1.1148 C   0  0  0  0  0  0  0  0  0  0  0  0
    3.4032   -1.3228   -0.1704 C   0  0  0  0  0  0  0  0  0  0  0  0
   -1.0799    1.2048   -0.3659 C   0  0  0  0  0  0  0  0  0  0  0  0
    0.3570    1.2536   -0.3286 C   0  0  0  0  0  0  0  0  0  0  0  0
   -2.9326    0.2583    2.3345 C   0  0  2  0  0  0  0  0  0  0  0  0
   -2.5443   -1.4667   -2.5989 C   0  0  2  0  0  0  0  0  0  0  0  0
    2.4100    0.7112    2.4116 C   0  0  2  0  0  0  0  0  0  0  0  0
    3.0127   -0.0307   -2.4043 C   0  0  2  0  0  0  0  0  0  0  0  0
   -2.7099   -0.2638    3.7823 C   0  0  0  0  0  0  0  0  0  0  0  0
   -4.4403    0.5414    2.0831 C   0  0  0  0  0  0  0  0  0  0  0  0
   -2.2176   -2.7510   -3.4227 C   0  0  0  0  0  0  0  0  0  0  0  0
   -2.3091   -0.2368   -3.5273 C   0  0  0  0  0  0  0  0  0  0  0  0
    2.9212    0.1110    3.7603 C   0  0  0  0  0  0  0  0  0  0  0  0
    1.4868    1.8976    2.8339 C   0  0  0  0  0  0  0  0  0  0  0  0
    4.5209   -0.0836   -2.8028 C   0  0  0  0  0  0  0  0  0  0  0  0
    2.3582    1.1631   -3.1540 C   0  0  0  0  0  0  0  0  0  0  0  0
   -1.7976    2.4307   -0.4611 C   0  0  0  0  0  0  0  0  0  0  0  0
    0.9860    2.5199   -0.4809 C   0  0  0  0  0  0  0  0  0  0  0  0
   -1.1420    3.6672   -0.5360 C   0  0  0  0  0  0  0  0  0  0  0  0
    0.2548    3.7116   -0.5653 C   0  0  0  0  0  0  0  0  0  0  0  0
  1  3  1  0  0  0  0
  1  4  1  0  0  0  0
  1 11  1  0  0  0  0
  2  5  1  0  0  0  0
  2  6  1  0  0  0  0
  2 12  1  0  0  0  0
  3  7  1  0  0  0  0
  3 13  1  0  0  0  0
  4  8  1  0  0  0  0
  4 14  1  0  0  0  0
  5  9  1  0  0  0  0
  5 15  1  0  0  0  0
  6 10  1  0  0  0  0
  6 16  1  0  0  0  0
  7  8  1  0  0  0  0
  9 10  1  0  0  0  0
 11 12  1  0  0  0  0
 11 25  2  0  0  0  0
 12 26  2  0  0  0  0
 13 17  1  0  0  0  0
 13 18  1  0  0  0  0
 14 19  1  0  0  0  0
 14 20  1  0  0  0  0
 15 21  1  0  0  0  0
 15 22  1  0  0  0  0
 16 23  1  0  0  0  0
 16 24  1  0  0  0  0
 25 27  1  0  0  0  0
 26 28  1  0  0  0  0
 27 28  2  0  0  0  0
M  END
