
  -OEChem-10071718523D

 10  8  0     0  0  0  0  0  0999 V2000
    0.0731   -2.5416   -0.0037 O   0  5  0  0  0  0  0  0  0  0  0  0
    1.1741   -1.9666    0.0003 N   0  3  0  0  0  0  0  0  0  0  0  0
    2.2224   -2.6329    0.0118 O   0  0  0  0  0  0  0  0  0  0  0  0
    1.2266   -0.7255   -0.0071 O   0  5  0  0  0  0  0  0  0  0  0  0
    5.6030   -1.3613   -0.5842 N   0  0  0  0  0  0  0  0  0  0  0  0
    6.8962   -1.2901   -0.0689 N   0  3  0  0  0  0  0  0  0  0  0  0
    7.8015   -1.4032   -1.1018 C   0  0  0  0  0  0  0  0  0  0  0  0
    7.9254   -2.5115   -1.7550 N   0  0  0  0  0  0  0  0  0  0  0  0
    8.6486   -0.2926   -1.3913 N   0  0  0  0  0  0  0  0  0  0  0  0
    7.2547   -3.2093   -1.4147 H   0  0  0  0  0  0  0  0  0  0  0  0
  1  2  1  0  0  0  0
  2  3  2  0  0  0  0
  2  4  1  0  0  0  0
  5  6  1  0  0  0  0
  6  7  1  0  0  0  0
  7  8  2  0  0  0  0
  7  9  1  0  0  0  0
  8 10  1  0  0  0  0
M  CHG  4   1  -1   2   1   4  -1   6   1
M  END
