10977566
  -OEChem-10081705523D

 19 23  0     0  0  0  0  0  0999 V2000
    0.0039    0.6719   -0.0411 C   0  0  0  0  0  0  0  0  0  0  0  0
   -1.2348   -0.0141    0.0073 C   0  0  0  0  0  0  0  0  0  0  0  0
    1.2345   -0.0291   -0.0052 C   0  0  0  0  0  0  0  0  0  0  0  0
   -0.0129   -2.2370    0.1322 C   0  0  0  0  0  0  0  0  0  0  0  0
   -1.2849   -1.4213    0.0921 C   0  0  0  0  0  0  0  0  0  0  0  0
    1.2684   -1.4368    0.0793 C   0  0  0  0  0  0  0  0  0  0  0  0
    0.0120    2.0856   -0.1265 C   0  0  0  0  0  0  0  0  0  0  0  0
   -2.4503    0.7121   -0.0292 C   0  0  0  0  0  0  0  0  0  0  0  0
    2.4584    0.6822   -0.0539 C   0  0  0  0  0  0  0  0  0  0  0  0
   -2.5210   -2.0852    0.1397 C   0  0  0  0  0  0  0  0  0  0  0  0
    2.4968   -2.1157    0.1144 C   0  0  0  0  0  0  0  0  0  0  0  0
   -1.1992    2.7867   -0.1622 C   0  0  0  0  0  0  0  0  0  0  0  0
    1.2313    2.7720   -0.1745 C   0  0  0  0  0  0  0  0  0  0  0  0
   -2.4161    2.1079   -0.1139 C   0  0  0  0  0  0  0  0  0  0  0  0
    2.4403    2.0784   -0.1384 C   0  0  0  0  0  0  0  0  0  0  0  0
   -3.6741    0.0269    0.0198 C   0  0  0  0  0  0  0  0  0  0  0  0
    3.6742   -0.0177   -0.0172 C   0  0  0  0  0  0  0  0  0  0  0  0
   -3.7094   -1.3634    0.1038 C   0  0  0  0  0  0  0  0  0  0  0  0
    3.6935   -1.4084    0.0665 C   0  0  0  0  0  0  0  0  0  0  0  0
  1  2  1  0  0  0  0
  1  3  1  0  0  0  0
  1  7  2  0  0  0  0
  2  5  1  0  0  0  0
  2  8  2  0  0  0  0
  3  6  1  0  0  0  0
  3  9  2  0  0  0  0
  4  5  1  0  0  0  0
  4  6  1  0  0  0  0
  5 10  2  0  0  0  0
  6 11  2  0  0  0  0
  7 12  1  0  0  0  0
  7 13  1  0  0  0  0
  8 14  1  0  0  0  0
  8 16  1  0  0  0  0
  9 15  1  0  0  0  0
  9 17  1  0  0  0  0
 10 18  1  0  0  0  0
 11 19  1  0  0  0  0
 12 14  2  0  0  0  0
 13 15  2  0  0  0  0
 16 18  2  0  0  0  0
 17 19  2  0  0  0  0
M  END
