11041945
  -OEChem-10081705543D

 15 16  0     0  0  0  0  0  0999 V2000
    2.9834    2.6343    0.0242 O   0  0  0  0  0  0  0  0  0  0  0  0
    1.9985    4.7380    0.0036 O   0  5  0  0  0  0  0  0  0  0  0  0
   -3.1319   -3.2069   -0.4722 O   0  5  0  0  0  0  0  0  0  0  0  0
   -1.7661   -4.1827    0.4962 O   0  0  0  0  0  0  0  0  0  0  0  0
    1.1913    1.4142    0.0048 N   0  3  0  0  0  0  0  0  0  0  0  0
    2.4915    1.4255    0.0265 N   0  0  0  0  0  0  0  0  0  0  0  0
   -2.0626   -3.1641    0.0086 N   0  3  0  0  0  0  0  0  0  0  0  0
    0.4037    0.2874   -0.0080 C   0  0  0  0  0  0  0  0  0  0  0  0
    0.8350   -0.9222    0.5847 C   0  0  0  0  0  0  0  0  0  0  0  0
   -0.8738    0.2853   -0.6130 C   0  0  0  0  0  0  0  0  0  0  0  0
   -1.2739   -2.0727   -0.0002 C   0  0  0  0  0  0  0  0  0  0  0  0
    0.0151   -2.0681    0.5926 C   0  0  0  0  0  0  0  0  0  0  0  0
   -1.6892   -0.8614   -0.6061 C   0  0  0  0  0  0  0  0  0  0  0  0
    0.7989    2.7036    0.0023 C   0  0  0  0  0  0  0  0  0  0  0  0
    1.9410    3.4878    0.0078 C   0  0  0  0  0  0  0  0  0  0  0  0
  1  6  1  0  0  0  0
  1 15  1  0  0  0  0
  2 15  1  0  0  0  0
  3  7  1  0  0  0  0
  4  7  2  0  0  0  0
  5  6  2  0  0  0  0
  5  8  1  0  0  0  0
  5 14  1  0  0  0  0
  7 11  1  0  0  0  0
  8  9  2  0  0  0  0
  8 10  1  0  0  0  0
  9 12  1  0  0  0  0
 10 13  2  0  0  0  0
 11 12  2  0  0  0  0
 11 13  1  0  0  0  0
 14 15  2  0  0  0  0
M  CHG  4   2  -1   3  -1   5   1   7   1
M  END
