11378852
  -OEChem-10081705533D

 12 12  0     1  0  0  0  0  0999 V2000
   -0.8357   -0.6480   -0.3068 O   0  0  0  0  0  0  0  0  0  0  0  0
    0.8237   -0.5514    2.3539 O   0  0  0  0  0  0  0  0  0  0  0  0
    1.2721   -0.3500   -1.2733 O   0  0  0  0  0  0  0  0  0  0  0  0
   -0.9598    1.3981    2.2455 O   0  0  0  0  0  0  0  0  0  0  0  0
    0.5211   -3.0631   -1.0534 O   0  0  0  0  0  0  0  0  0  0  0  0
   -1.8637    0.8642   -2.4636 O   0  0  0  0  0  0  0  0  0  0  0  0
    0.8502    0.1376    1.1020 C   0  0  1  0  0  0  0  0  0  0  0  0
    0.5745   -0.7957   -0.1052 C   0  0  1  0  0  0  0  0  0  0  0  0
   -0.2555    1.2189    1.0146 C   0  0  1  0  0  0  0  0  0  0  0  0
   -1.1961    0.7263   -0.1132 C   0  0  1  0  0  0  0  0  0  0  0  0
    0.9440   -2.2909    0.0663 C   0  0  0  0  0  0  0  0  0  0  0  0
   -1.1535    1.5430   -1.4332 C   0  0  0  0  0  0  0  0  0  0  0  0
  1  8  1  0  0  0  0
  1 10  1  0  0  0  0
  2  7  1  0  0  0  0
  3  8  1  0  0  0  0
  4  9  1  0  0  0  0
  5 11  1  0  0  0  0
  6 12  1  0  0  0  0
  7  8  1  0  0  0  0
  7  9  1  0  0  0  0
  8 11  1  0  0  0  0
  9 10  1  0  0  0  0
 10 12  1  0  0  0  0
M  END
