123023
  -OEChem-10081705533D

 12 13  0     0  0  0  0  0  0999 V2000
    2.6973    2.2062    0.0202 O   0  0  0  0  0  0  0  0  0  0  0  0
    1.7031    4.3067    0.0012 O   0  5  0  0  0  0  0  0  0  0  0  0
    0.9094    0.9840    0.0034 N   0  3  0  0  0  0  0  0  0  0  0  0
    2.2094    0.9959    0.0230 N   0  0  0  0  0  0  0  0  0  0  0  0
    0.1220   -0.1391   -0.0075 C   0  0  0  0  0  0  0  0  0  0  0  0
    0.5591   -1.3471    0.5903 C   0  0  0  0  0  0  0  0  0  0  0  0
   -1.1590   -0.1355   -0.6139 C   0  0  0  0  0  0  0  0  0  0  0  0
    0.5120    2.2726    0.0016 C   0  0  0  0  0  0  0  0  0  0  0  0
   -0.2568   -2.4953    0.6026 C   0  0  0  0  0  0  0  0  0  0  0  0
   -1.9797   -1.2777   -0.6082 C   0  0  0  0  0  0  0  0  0  0  0  0
   -1.5283   -2.4583    0.0045 C   0  0  0  0  0  0  0  0  0  0  0  0
    1.6521    3.0560    0.0054 C   0  0  0  0  0  0  0  0  0  0  0  0
  1  4  1  0  0  0  0
  1 12  1  0  0  0  0
  2 12  1  0  0  0  0
  3  4  2  0  0  0  0
  3  5  1  0  0  0  0
  3  8  1  0  0  0  0
  5  6  2  0  0  0  0
  5  7  1  0  0  0  0
  6  9  1  0  0  0  0
  7 10  2  0  0  0  0
  8 12  2  0  0  0  0
  9 11  2  0  0  0  0
 10 11  1  0  0  0  0
M  CHG  2   2  -1   3   1
M  END
