146025
  -OEChem-10081705533D

 18 19  0     0  0  0  0  0  0999 V2000
   -3.4560   -3.7581    2.1410 O   0  0  0  0  0  0  0  0  0  0  0  0
    3.0500    1.2749   -0.3480 O   0  0  0  0  0  0  0  0  0  0  0  0
    1.7002    3.6210   -0.6352 O   0  0  0  0  0  0  0  0  0  0  0  0
   -4.7032   -4.7574    0.6645 O   0  0  0  0  0  0  0  0  0  0  0  0
   -2.0131   -2.9507    0.9857 N   0  3  0  0  0  0  0  0  0  0  0  0
   -2.4770   -3.1089    2.1183 N   0  0  0  0  0  0  0  0  0  0  0  0
   -1.1043   -1.2080   -0.5389 C   0  0  0  0  0  0  0  0  0  0  0  0
   -0.8860   -2.1811    0.6576 C   0  0  0  0  0  0  0  0  0  0  0  0
   -0.3463    0.0694   -0.4888 C   0  0  0  0  0  0  0  0  0  0  0  0
    1.0672    0.0790   -0.4843 C   0  0  0  0  0  0  0  0  0  0  0  0
   -1.0264    1.3082   -0.4463 C   0  0  0  0  0  0  0  0  0  0  0  0
    1.7847    1.2933   -0.4476 C   0  0  0  0  0  0  0  0  0  0  0  0
    1.0851    2.5189   -0.5109 C   0  0  0  0  0  0  0  0  0  0  0  0
   -0.3226    2.5232   -0.4626 C   0  0  0  0  0  0  0  0  0  0  0  0
   -2.7847   -3.6162    0.2121 C   0  0  0  0  0  0  0  0  0  0  0  0
   -3.7278   -4.1044    1.0019 C   0  0  0  0  0  0  0  0  0  0  0  0
    3.7305    1.3478    0.8017 C   0  0  0  0  0  0  0  0  0  0  0  0
    2.0178    4.1854   -1.8062 C   0  0  0  0  0  0  0  0  0  0  0  0
  1  6  1  0  0  0  0
  1 16  1  0  0  0  0
  2 12  1  0  0  0  0
  2 17  1  0  0  0  0
  3 13  1  0  0  0  0
  3 18  1  0  0  0  0
  4 16  2  0  0  0  0
  5  6  1  0  0  0  0
  5  8  1  0  0  0  0
  5 15  2  0  0  0  0
  7  8  1  0  0  0  0
  7  9  1  0  0  0  0
  9 10  2  0  0  0  0
  9 11  1  0  0  0  0
 10 12  1  0  0  0  0
 11 14  2  0  0  0  0
 12 13  2  0  0  0  0
 13 14  1  0  0  0  0
 15 16  1  0  0  0  0
M  CHG  1   5   1
M  END
