
  -OEChem-10081705533D

 14 14  0     0  0  0  0  0  0999 V2000
    0.2065   -4.4749    1.1055 N   0  3  0  0  0  0  0  0  0  0  0  0
    1.1975   -5.3048    1.3695 N   0  0  0  0  0  0  0  0  0  0  0  0
   -0.7612   -4.4169    2.0818 C   0  0  0  0  0  0  0  0  0  0  0  0
   -0.3145   -5.2782    3.0546 C   0  0  0  0  0  0  0  0  0  0  0  0
    0.8762   -5.8283    2.6351 O   0  0  0  0  0  0  0  0  0  0  0  0
    0.1216   -3.7740   -0.1636 C   0  0  0  0  0  0  0  0  0  0  0  0
    5.9131   -4.0031    0.0044 Cl  0  5  0  0  0  0  0  0  0  0  0  0
   -0.7698   -5.6141    4.2726 N   0  0  0  0  0  0  0  0  0  0  0  0
    0.7189   -2.3971   -0.0597 C   0  0  0  0  0  0  0  0  0  0  0  0
   -0.0961   -1.2577   -0.0304 C   0  0  0  0  0  0  0  0  0  0  0  0
    2.1103   -2.2359   -0.0431 C   0  0  0  0  0  0  0  0  0  0  0  0
    2.6797   -0.9632    0.0001 C   0  0  0  0  0  0  0  0  0  0  0  0
    0.4743    0.0171    0.0085 C   0  0  0  0  0  0  0  0  0  0  0  0
    1.8610    0.1637    0.0175 C   0  0  0  0  0  0  0  0  0  0  0  0
  1  2  2  0  0  0  0
  1  3  1  0  0  0  0
  1  6  1  0  0  0  0
  2  5  1  0  0  0  0
  3  4  2  0  0  0  0
  4  8  1  0  0  0  0
  4  5  1  0  0  0  0
  6  9  1  0  0  0  0
  9 10  1  0  0  0  0
  9 11  2  0  0  0  0
 10 13  2  0  0  0  0
 11 12  1  0  0  0  0
 12 14  2  0  0  0  0
 13 14  1  0  0  0  0
M  CHG  2   1   1   7  -1
M  END
