
  -OEChem-10081705533D

 11 10  0     0  0  0  0  0  0999 V2000
    5.0265   -4.0019   -0.1314 O   0  0  0  0  0  0  0  0  0  0  0  0
    6.1363   -3.1870   -0.1250 C   0  0  0  0  0  0  0  0  0  0  0  0
    5.7164   -1.8806   -0.0877 C   0  0  0  0  0  0  0  0  0  0  0  0
    4.3449   -1.9670   -0.0845 N   0  3  0  0  0  0  0  0  0  0  0  0
    3.8722   -3.1972   -0.1086 N   0  0  0  0  0  0  0  0  0  0  0  0
    7.3516   -3.7683   -0.1664 N   0  0  0  0  0  0  0  0  0  0  0  0
    3.4656   -0.8118   -0.0745 C   0  0  0  0  0  0  0  0  0  0  0  0
    2.9652   -0.5141    1.3369 C   0  0  0  0  0  0  0  0  0  0  0  0
    2.0144    0.6838    1.3687 C   0  0  0  0  0  0  0  0  0  0  0  0
    2.7485    2.0011    1.5681 C   0  0  0  0  0  0  0  0  0  0  0  0
   10.0221   -0.3929    0.0231 Cl  0  5  0  0  0  0  0  0  0  0  0  0
  1  5  1  0  0  0  0
  1  2  1  0  0  0  0
  2  3  2  0  0  0  0
  2  6  1  0  0  0  0
  3  4  1  0  0  0  0
  4  5  2  0  0  0  0
  4  7  1  0  0  0  0
  7  8  1  0  0  0  0
  8  9  1  0  0  0  0
  9 10  1  0  0  0  0
M  CHG  2   4   1  11  -1
M  END
