198877
  -OEChem-10081705533D

 13 14  0     0  0  0  0  0  0999 V2000
   -2.2979   -2.1163    1.1234 O   0  0  0  0  0  0  0  0  0  0  0  0
   -1.9654   -3.9849    0.0659 O   0  0  0  0  0  0  0  0  0  0  0  0
   -0.9639   -0.8793    0.2298 N   0  3  0  0  0  0  0  0  0  0  0  0
   -1.8373   -1.0360    1.0912 N   0  0  0  0  0  0  0  0  0  0  0  0
   -0.2961    0.2635   -0.0044 C   0  0  0  0  0  0  0  0  0  0  0  0
    1.1234    0.3513   -0.1379 C   0  0  0  0  0  0  0  0  0  0  0  0
   -1.0544    1.4577   -0.1202 C   0  0  0  0  0  0  0  0  0  0  0  0
    1.7183    1.6067   -0.4160 C   0  0  0  0  0  0  0  0  0  0  0  0
   -0.8786   -2.0200   -0.3454 C   0  0  0  0  0  0  0  0  0  0  0  0
    2.0638   -0.7870    0.0265 C   0  0  0  0  0  0  0  0  0  0  0  0
   -0.4457    2.7008   -0.3668 C   0  0  0  0  0  0  0  0  0  0  0  0
    0.9456    2.7742   -0.5204 C   0  0  0  0  0  0  0  0  0  0  0  0
   -1.7498   -2.8006    0.2764 C   0  0  0  0  0  0  0  0  0  0  0  0
  1  4  1  0  0  0  0
  1 13  1  0  0  0  0
  2 13  2  0  0  0  0
  3  4  1  0  0  0  0
  3  5  1  0  0  0  0
  3  9  2  0  0  0  0
  5  6  1  0  0  0  0
  5  7  2  0  0  0  0
  6  8  2  0  0  0  0
  6 10  1  0  0  0  0
  7 11  1  0  0  0  0
  8 12  1  0  0  0  0
  9 13  1  0  0  0  0
 11 12  2  0  0  0  0
M  CHG  1   3   1
M  END
