198872
  -OEChem-10081705543D

 13 14  0     0  0  0  0  0  0999 V2000
    2.3261    0.5313   -0.0676 O   0  0  0  0  0  0  0  0  0  0  0  0
    1.9905    3.8384    0.0346 O   0  5  0  0  0  0  0  0  0  0  0  0
    1.0187    0.5711   -0.0405 N   0  3  0  0  0  0  0  0  0  0  0  0
    2.8595    1.7187   -0.0489 N   0  0  0  0  0  0  0  0  0  0  0  0
    0.2662   -0.5755   -0.0691 C   0  0  0  0  0  0  0  0  0  0  0  0
    0.6573    1.8753    0.0237 C   0  0  0  0  0  0  0  0  0  0  0  0
    0.7203   -1.7319    0.6103 C   0  0  0  0  0  0  0  0  0  0  0  0
   -0.9625   -0.6657   -0.7682 C   0  0  0  0  0  0  0  0  0  0  0  0
   -0.6740    2.5076    0.1385 C   0  0  0  0  0  0  0  0  0  0  0  0
    1.8493    2.5926   -0.0011 C   0  0  0  0  0  0  0  0  0  0  0  0
   -0.0550   -2.9065    0.6560 C   0  0  0  0  0  0  0  0  0  0  0  0
   -1.7422   -1.8371   -0.7349 C   0  0  0  0  0  0  0  0  0  0  0  0
   -1.2967   -2.9530   -0.0024 C   0  0  0  0  0  0  0  0  0  0  0  0
  1  3  1  0  0  0  0
  1  4  1  0  0  0  0
  2 10  1  0  0  0  0
  3  5  1  0  0  0  0
  3  6  2  0  0  0  0
  4 10  2  0  0  0  0
  5  7  2  0  0  0  0
  5  8  1  0  0  0  0
  6  9  1  0  0  0  0
  6 10  1  0  0  0  0
  7 11  1  0  0  0  0
  8 12  2  0  0  0  0
 11 13  2  0  0  0  0
 12 13  1  0  0  0  0
M  CHG  2   2  -1   3   1
M  END
