199185
  -OEChem-10081705543D

 19 21  0     0  0  0  0  0  0999 V2000
   -1.2992   -5.3385    0.1305 Cl  0  0  0  0  0  0  0  0  0  0  0  0
    3.5005    0.9021   -0.2467 O   0  0  0  0  0  0  0  0  0  0  0  0
    2.6405    2.9963   -0.1010 O   0  5  0  0  0  0  0  0  0  0  0  0
    1.6869   -0.2579   -0.1997 N   0  3  0  0  0  0  0  0  0  0  0  0
    2.9822   -0.2868   -0.2751 N   0  0  0  0  0  0  0  0  0  0  0  0
    1.2675    1.0355   -0.1041 C   0  0  0  0  0  0  0  0  0  0  0  0
   -0.0250    1.6415    0.0362 C   0  0  0  0  0  0  0  0  0  0  0  0
    1.0289   -1.4570   -0.1765 C   0  0  0  0  0  0  0  0  0  0  0  0
    2.4671    1.7556   -0.1421 C   0  0  0  0  0  0  0  0  0  0  0  0
   -1.1691    1.2023   -0.6736 C   0  0  0  0  0  0  0  0  0  0  0  0
   -0.2170    2.7608    0.8889 C   0  0  0  0  0  0  0  0  0  0  0  0
    1.2729   -2.3725    0.8757 C   0  0  0  0  0  0  0  0  0  0  0  0
    0.1379   -1.8572   -1.1963 C   0  0  0  0  0  0  0  0  0  0  0  0
    0.5777   -3.5937    0.9580 C   0  0  0  0  0  0  0  0  0  0  0  0
   -0.6075   -3.0456   -1.0938 C   0  0  0  0  0  0  0  0  0  0  0  0
   -2.4291    1.8129   -0.5380 C   0  0  0  0  0  0  0  0  0  0  0  0
   -1.4635    3.4053    1.0170 C   0  0  0  0  0  0  0  0  0  0  0  0
   -0.3955   -3.9147   -0.0070 C   0  0  0  0  0  0  0  0  0  0  0  0
   -2.5749    2.9236    0.3064 C   0  0  0  0  0  0  0  0  0  0  0  0
  1 18  1  0  0  0  0
  2  5  1  0  0  0  0
  2  9  1  0  0  0  0
  3  9  1  0  0  0  0
  4  5  2  0  0  0  0
  4  6  1  0  0  0  0
  4  8  1  0  0  0  0
  6  7  1  0  0  0  0
  6  9  2  0  0  0  0
  7 10  2  0  0  0  0
  7 11  1  0  0  0  0
  8 12  2  0  0  0  0
  8 13  1  0  0  0  0
 10 16  1  0  0  0  0
 11 17  2  0  0  0  0
 12 14  1  0  0  0  0
 13 15  2  0  0  0  0
 14 18  2  0  0  0  0
 15 18  1  0  0  0  0
 16 19  2  0  0  0  0
 17 19  1  0  0  0  0
M  CHG  2   3  -1   4   1
M  END
