
  -OEChem-10081705533D

 10  9  0     0  0  0  0  0  0999 V2000
    2.7688   -4.4247    0.0366 O   0  0  0  0  0  0  0  0  0  0  0  0
    3.7822   -3.5058   -0.1069 C   0  0  0  0  0  0  0  0  0  0  0  0
    3.2347   -2.2474   -0.1096 C   0  0  0  0  0  0  0  0  0  0  0  0
    1.8815   -2.4663    0.0223 N   0  3  0  0  0  0  0  0  0  0  0  0
    1.5439   -3.7383    0.1198 N   0  0  0  0  0  0  0  0  0  0  0  0
    5.0426   -3.9657   -0.2222 N   0  0  0  0  0  0  0  0  0  0  0  0
    0.8673   -1.4132    0.0440 C   0  0  0  0  0  0  0  0  0  0  0  0
    1.0581   -0.4847    1.2396 C   0  0  0  0  0  0  0  0  0  0  0  0
    0.8425   -0.6427   -1.2760 C   0  0  0  0  0  0  0  0  0  0  0  0
    7.4488   -0.4218    0.0183 Cl  0  5  0  0  0  0  0  0  0  0  0  0
  1  2  1  0  0  0  0
  1  5  1  0  0  0  0
  2  6  1  0  0  0  0
  2  3  2  0  0  0  0
  3  4  1  0  0  0  0
  4  5  2  0  0  0  0
  4  7  1  0  0  0  0
  7  8  1  0  0  0  0
  7  9  1  0  0  0  0
M  CHG  2   4   1  10  -1
M  END
