
  -OEChem-10081705543D

  9  8  0     0  0  0  0  0  0999 V2000
    2.0707   -1.2127   -0.0481 N   0  3  0  0  0  0  0  0  0  0  0  0
    1.5977   -2.4428   -0.0707 N   0  0  0  0  0  0  0  0  0  0  0  0
    3.4415   -1.1318   -0.0061 C   0  0  0  0  0  0  0  0  0  0  0  0
    3.8626   -2.4386    0.0240 C   0  0  0  0  0  0  0  0  0  0  0  0
    2.7510   -3.2517   -0.0222 O   0  0  0  0  0  0  0  0  0  0  0  0
    7.2500    0.6278   -0.0001 Cl  0  5  0  0  0  0  0  0  0  0  0  0
    5.0689   -3.0171    0.1467 N   0  0  0  0  0  0  0  0  0  0  0  0
    1.2009   -0.0517   -0.1264 C   0  0  0  0  0  0  0  0  0  0  0  0
    0.2926    0.0858    1.0843 C   0  0  0  0  0  0  0  0  0  0  0  0
  1  2  2  0  0  0  0
  1  3  1  0  0  0  0
  1  8  1  0  0  0  0
  2  5  1  0  0  0  0
  3  4  2  0  0  0  0
  4  7  1  0  0  0  0
  4  5  1  0  0  0  0
  8  9  1  0  0  0  0
M  CHG  2   1   1   6  -1
M  END
