
  -OEChem-10081705543D

 13 13  0     0  0  0  0  0  0999 V2000
    3.2084   -0.0030   -0.7366 N   0  3  0  0  0  0  0  0  0  0  0  0
    4.4947    0.0243   -1.0232 N   0  0  0  0  0  0  0  0  0  0  0  0
    2.3827   -0.0133   -1.8342 C   0  0  0  0  0  0  0  0  0  0  0  0
    3.2409    0.0335   -2.9068 C   0  0  0  0  0  0  0  0  0  0  0  0
    4.5329    0.0418   -2.4315 O   0  0  0  0  0  0  0  0  0  0  0  0
    3.0393    0.1439   -4.2315 N   0  0  0  0  0  0  0  0  0  0  0  0
    2.8451    0.0029    0.6740 C   0  0  0  0  0  0  0  0  0  0  0  0
    3.8413    0.0191    1.6563 C   0  0  0  0  0  0  0  0  0  0  0  0
    1.4947   -0.0134    1.0333 C   0  0  0  0  0  0  0  0  0  0  0  0
    1.1440   -0.0198    2.3851 C   0  0  0  0  0  0  0  0  0  0  0  0
    3.4785    0.0130    3.0040 C   0  0  0  0  0  0  0  0  0  0  0  0
    2.1329   -0.0078    3.3686 C   0  0  0  0  0  0  0  0  0  0  0  0
  -55.0339    0.0000   -0.1988 Cl  0  5  0  0  0  0  0  0  0  0  0  0
  1  7  1  0  0  0  0
  1  2  2  0  0  0  0
  1  3  1  0  0  0  0
  2  5  1  0  0  0  0
  3  4  2  0  0  0  0
  4  6  1  0  0  0  0
  4  5  1  0  0  0  0
  7  8  2  0  0  0  0
  7  9  1  0  0  0  0
  8 11  1  0  0  0  0
  9 10  2  0  0  0  0
 10 12  1  0  0  0  0
 11 12  2  0  0  0  0
M  CHG  2   1   1  13  -1
M  END
