201822
  -OEChem-10081705543D

  9  9  0     0  0  0  0  0  0999 V2000
   -2.6003   -1.7061   -0.6069 O   0  0  0  0  0  0  0  0  0  0  0  0
   -4.2340   -0.0568   -0.5867 O   0  5  0  0  0  0  0  0  0  0  0  0
   -0.8613   -0.4505   -0.6178 N   0  3  0  0  0  0  0  0  0  0  0  0
   -1.2962   -1.6728   -0.6174 N   0  0  0  0  0  0  0  0  0  0  0  0
    0.5140   -0.0716   -0.6105 C   0  0  0  0  0  0  0  0  0  0  0  0
    1.0431    0.0943    0.8344 C   0  0  0  0  0  0  0  0  0  0  0  0
    2.5183    0.5409    0.8837 C   0  0  0  0  0  0  0  0  0  0  0  0
   -1.9177    0.3790   -0.6068 C   0  0  0  0  0  0  0  0  0  0  0  0
   -3.0407   -0.4313   -0.5994 C   0  0  0  0  0  0  0  0  0  0  0  0
  1  4  1  0  0  0  0
  1  9  1  0  0  0  0
  2  9  1  0  0  0  0
  3  4  2  0  0  0  0
  3  5  1  0  0  0  0
  3  8  1  0  0  0  0
  5  6  1  0  0  0  0
  6  7  1  0  0  0  0
  8  9  2  0  0  0  0
M  CHG  2   2  -1   3   1
M  END
