202149
  -OEChem-10081705543D

 14 15  0     0  0  0  0  0  0999 V2000
    2.7913    2.3236   -0.2169 O   0  0  0  0  0  0  0  0  0  0  0  0
    1.8716    4.4339   -0.1552 O   0  5  0  0  0  0  0  0  0  0  0  0
    0.9762    1.1396   -0.2203 N   0  3  0  0  0  0  0  0  0  0  0  0
    2.2748    1.1279   -0.2356 N   0  0  0  0  0  0  0  0  0  0  0  0
    0.2269   -0.0129   -0.2580 C   0  0  0  0  0  0  0  0  0  0  0  0
    0.5858    2.4387   -0.1596 C   0  0  0  0  0  0  0  0  0  0  0  0
    0.6514   -1.1943    0.4017 C   0  0  0  0  0  0  0  0  0  0  0  0
   -0.1405   -2.3676    0.4339 C   0  0  0  0  0  0  0  0  0  0  0  0
   -0.9983   -0.0733   -0.9618 C   0  0  0  0  0  0  0  0  0  0  0  0
   -1.4041   -2.3399   -0.1953 C   0  0  0  0  0  0  0  0  0  0  0  0
   -1.8278   -1.2040   -0.9041 C   0  0  0  0  0  0  0  0  0  0  0  0
   -0.7576    3.0480   -0.0560 C   0  0  0  0  0  0  0  0  0  0  0  0
    1.7594    3.1854   -0.1811 C   0  0  0  0  0  0  0  0  0  0  0  0
    0.3534   -3.5901    1.1089 C   0  0  0  0  0  0  0  0  0  0  0  0
  1  4  1  0  0  0  0
  1 13  1  0  0  0  0
  2 13  1  0  0  0  0
  3  4  2  0  0  0  0
  3  5  1  0  0  0  0
  3  6  1  0  0  0  0
  5  7  1  0  0  0  0
  5  9  2  0  0  0  0
  6 12  1  0  0  0  0
  6 13  2  0  0  0  0
  7  8  2  0  0  0  0
  8 10  1  0  0  0  0
  8 14  1  0  0  0  0
  9 11  1  0  0  0  0
 10 11  2  0  0  0  0
M  CHG  2   2  -1   3   1
M  END
