202170
  -OEChem-10081705533D

 15 16  0     0  0  0  0  0  0999 V2000
   -2.2080   -2.7578    1.1046 O   0  0  0  0  0  0  0  0  0  0  0  0
   -1.5733   -4.6708    0.2866 O   0  0  0  0  0  0  0  0  0  0  0  0
    1.2601    4.4717   -0.3762 O   0  5  0  0  0  0  0  0  0  0  0  0
    2.8765    3.4670   -1.1597 O   0  0  0  0  0  0  0  0  0  0  0  0
   -0.8268   -1.4904    0.3313 N   0  3  0  0  0  0  0  0  0  0  0  0
   -1.8379   -1.6449    1.0276 N   0  0  0  0  0  0  0  0  0  0  0  0
   -0.1976   -0.3290    0.0880 C   0  0  0  0  0  0  0  0  0  0  0  0
    1.2051   -0.2569   -0.0962 C   0  0  0  0  0  0  0  0  0  0  0  0
   -0.9214    0.8846    0.0087 C   0  0  0  0  0  0  0  0  0  0  0  0
   -0.5479   -2.6686   -0.0843 C   0  0  0  0  0  0  0  0  0  0  0  0
    1.1252    2.1799   -0.4228 C   0  0  0  0  0  0  0  0  0  0  0  0
    1.8512    0.9669   -0.3506 C   0  0  0  0  0  0  0  0  0  0  0  0
   -0.2769    2.1101   -0.2410 C   0  0  0  0  0  0  0  0  0  0  0  0
   -1.4690   -3.4630    0.4390 C   0  0  0  0  0  0  0  0  0  0  0  0
    1.7642    3.3913   -0.6586 C   0  0  0  0  0  0  0  0  0  0  0  0
  1  6  1  0  0  0  0
  1 14  1  0  0  0  0
  2 14  2  0  0  0  0
  3 15  1  0  0  0  0
  4 15  2  0  0  0  0
  5  6  1  0  0  0  0
  5  7  1  0  0  0  0
  5 10  2  0  0  0  0
  7  8  2  0  0  0  0
  7  9  1  0  0  0  0
  8 12  1  0  0  0  0
  9 13  2  0  0  0  0
 10 14  1  0  0  0  0
 11 12  2  0  0  0  0
 11 13  1  0  0  0  0
 11 15  1  0  0  0  0
M  CHG  2   3  -1   5   1
M  END
