202171
  -OEChem-10081705543D

 15 16  0     0  0  0  0  0  0999 V2000
   -2.2306   -2.9648    1.0951 O   0  0  0  0  0  0  0  0  0  0  0  0
   -1.6028   -4.8737    0.2613 O   0  0  0  0  0  0  0  0  0  0  0  0
    1.2923    4.2659   -0.2738 O   0  0  0  0  0  0  0  0  0  0  0  0
    2.8133    3.2629   -1.2311 O   0  0  0  0  0  0  0  0  0  0  0  0
   -0.8513   -1.6962    0.3238 N   0  3  0  0  0  0  0  0  0  0  0  0
   -1.8574   -1.8525    1.0274 N   0  0  0  0  0  0  0  0  0  0  0  0
   -0.2281   -0.5329    0.0747 C   0  0  0  0  0  0  0  0  0  0  0  0
    1.1741   -0.4596   -0.1054 C   0  0  0  0  0  0  0  0  0  0  0  0
   -0.9549    0.6782   -0.0186 C   0  0  0  0  0  0  0  0  0  0  0  0
    1.0935    1.9758   -0.4323 C   0  0  0  0  0  0  0  0  0  0  0  0
    1.8203    0.7639   -0.3571 C   0  0  0  0  0  0  0  0  0  0  0  0
   -0.3107    1.9043   -0.2677 C   0  0  0  0  0  0  0  0  0  0  0  0
   -0.5687   -2.8739   -0.0912 C   0  0  0  0  0  0  0  0  0  0  0  0
   -1.4930   -3.6683    0.4253 C   0  0  0  0  0  0  0  0  0  0  0  0
    1.7385    3.1880   -0.6531 C   0  0  0  0  0  0  0  0  0  0  0  0
  1  6  1  0  0  0  0
  1 14  1  0  0  0  0
  2 14  2  0  0  0  0
  3 15  1  0  0  0  0
  4 15  2  0  0  0  0
  5  6  1  0  0  0  0
  5  7  1  0  0  0  0
  5 13  2  0  0  0  0
  7  8  2  0  0  0  0
  7  9  1  0  0  0  0
  8 11  1  0  0  0  0
  9 12  2  0  0  0  0
 10 11  2  0  0  0  0
 10 12  1  0  0  0  0
 10 15  1  0  0  0  0
 13 14  1  0  0  0  0
M  CHG  1   5   1
M  END
