203431
  -OEChem-10081705543D

 13 13  0     1  0  0  0  0  0999 V2000
   -1.1265    2.3078    0.1656 O   0  0  0  0  0  0  0  0  0  0  0  0
   -3.1531    1.5860    0.2871 O   0  0  0  0  0  0  0  0  0  0  0  0
   -2.3740   -2.8189   -1.2742 O   0  5  0  0  0  0  0  0  0  0  0  0
   -1.6768   -1.0900   -2.1782 O   0  0  0  0  0  0  0  0  0  0  0  0
   -0.0480    0.5986    0.1647 N   0  3  0  0  0  0  0  0  0  0  0  0
   -0.0575    1.8342    0.1238 N   0  0  0  0  0  0  0  0  0  0  0  0
    1.1303   -0.1815    0.1635 C   0  0  1  0  0  0  0  0  0  0  0  0
   -1.2844    0.2483    0.2026 C   0  0  0  0  0  0  0  0  0  0  0  0
    1.9794    0.0277   -1.1168 C   0  0  0  0  0  0  0  0  0  0  0  0
    1.9451    0.0420    1.4657 C   0  0  0  0  0  0  0  0  0  0  0  0
   -1.8724   -1.0865    0.1819 C   0  0  0  0  0  0  0  0  0  0  0  0
   -1.9454    1.4090    0.2254 C   0  0  0  0  0  0  0  0  0  0  0  0
   -1.9673   -1.6732   -1.1425 C   0  0  0  0  0  0  0  0  0  0  0  0
  1  6  1  0  0  0  0
  1 12  1  0  0  0  0
  2 12  2  0  0  0  0
  3 13  1  0  0  0  0
  4 13  2  0  0  0  0
  5  6  1  0  0  0  0
  5  7  1  0  0  0  0
  5  8  2  0  0  0  0
  7  9  1  0  0  0  0
  7 10  1  0  0  0  0
  8 11  1  0  0  0  0
  8 12  1  0  0  0  0
 11 13  1  0  0  0  0
M  CHG  2   3  -1   5   1
M  END
