207424
  -OEChem-10081705543D

 12 12  0     0  0  0  0  0  0999 V2000
   -4.1512   -2.0922   -1.6943 O   0  0  0  0  0  0  0  0  0  0  0  0
   -5.7845   -0.4465   -1.6415 O   0  5  0  0  0  0  0  0  0  0  0  0
   -2.4120   -0.8375   -1.7310 N   0  3  0  0  0  0  0  0  0  0  0  0
   -2.8474   -2.0592   -1.7267 N   0  0  0  0  0  0  0  0  0  0  0  0
    0.9640    0.1452   -0.2156 C   0  0  0  0  0  0  0  0  0  0  0  0
   -0.5155   -0.3025   -0.2845 C   0  0  0  0  0  0  0  0  0  0  0  0
    1.4882    0.3067    1.2319 C   0  0  0  0  0  0  0  0  0  0  0  0
   -1.0344   -0.4672   -1.7328 C   0  0  0  0  0  0  0  0  0  0  0  0
    2.9695    0.7531    1.2985 C   0  0  0  0  0  0  0  0  0  0  0  0
    3.4904    0.9099    2.7421 C   0  0  0  0  0  0  0  0  0  0  0  0
   -3.4678   -0.0069   -1.7008 C   0  0  0  0  0  0  0  0  0  0  0  0
   -4.5904   -0.8171   -1.6761 C   0  0  0  0  0  0  0  0  0  0  0  0
  1  4  1  0  0  0  0
  1 12  1  0  0  0  0
  2 12  1  0  0  0  0
  3  4  2  0  0  0  0
  3  8  1  0  0  0  0
  3 11  1  0  0  0  0
  5  6  1  0  0  0  0
  5  7  1  0  0  0  0
  6  8  1  0  0  0  0
  7  9  1  0  0  0  0
  9 10  1  0  0  0  0
 11 12  2  0  0  0  0
M  CHG  2   2  -1   3   1
M  END
