209848
  -OEChem-10081705543D

 12 13  0     1  0  0  0  0  0999 V2000
    2.1030    2.4371   -0.3318 O   0  0  0  0  0  0  0  0  0  0  0  0
    1.3820    4.5741   -0.8971 O   0  5  0  0  0  0  0  0  0  0  0  0
    0.2160    1.3986   -0.4583 N   0  3  0  0  0  0  0  0  0  0  0  0
    1.4847    1.2943   -0.2048 N   0  0  0  0  0  0  0  0  0  0  0  0
   -0.7570    0.3376   -0.4114 C   0  0  2  0  0  0  0  0  0  0  0  0
   -1.1343   -0.0587    1.0471 C   0  0  0  0  0  0  0  0  0  0  0  0
   -0.3846   -0.9031   -1.2799 C   0  0  0  0  0  0  0  0  0  0  0  0
   -0.1484   -1.0480    1.7198 C   0  0  0  0  0  0  0  0  0  0  0  0
    0.5854   -1.9026   -0.5952 C   0  0  0  0  0  0  0  0  0  0  0  0
    0.1278   -2.2882    0.8338 C   0  0  0  0  0  0  0  0  0  0  0  0
   -0.0254    2.6868   -0.7652 C   0  0  0  0  0  0  0  0  0  0  0  0
    1.1826    3.3567   -0.6860 C   0  0  0  0  0  0  0  0  0  0  0  0
  1  4  1  0  0  0  0
  1 12  1  0  0  0  0
  2 12  1  0  0  0  0
  3  4  2  0  0  0  0
  3  5  1  0  0  0  0
  3 11  1  0  0  0  0
  5  6  1  0  0  0  0
  5  7  1  0  0  0  0
  6  8  1  0  0  0  0
  7  9  1  0  0  0  0
  8 10  1  0  0  0  0
  9 10  1  0  0  0  0
 11 12  2  0  0  0  0
M  CHG  2   2  -1   3   1
M  END
