213964
  -OEChem-10081705543D

  9  9  0     0  0  0  0  0  0999 V2000
   -2.4217   -1.2175   -0.2983 O   0  0  0  0  0  0  0  0  0  0  0  0
   -3.8314    0.6228   -0.2917 O   0  5  0  0  0  0  0  0  0  0  0  0
    0.7499   -0.0542    0.0273 N   0  0  0  0  0  0  0  0  0  0  0  0
   -0.5245   -0.2039   -0.1075 N   0  3  0  0  0  0  0  0  0  0  0  0
   -1.1261   -1.3504   -0.2153 N   0  0  0  0  0  0  0  0  0  0  0  0
    1.2507    0.5414    1.2023 C   0  0  0  0  0  0  0  0  0  0  0  0
    1.6236   -0.6379   -0.9109 C   0  0  0  0  0  0  0  0  0  0  0  0
   -1.4749    0.7515   -0.1471 C   0  0  0  0  0  0  0  0  0  0  0  0
   -2.6938    0.1009   -0.2503 C   0  0  0  0  0  0  0  0  0  0  0  0
  1  5  1  0  0  0  0
  1  9  1  0  0  0  0
  2  9  1  0  0  0  0
  3  4  1  0  0  0  0
  3  6  1  0  0  0  0
  3  7  1  0  0  0  0
  4  5  2  0  0  0  0
  4  8  1  0  0  0  0
  8  9  2  0  0  0  0
M  CHG  2   2  -1   4   1
M  END
