216800
  -OEChem-10081705533D

 21 22  0     0  0  0  0  0  0999 V2000
    3.9604   -0.1339    2.2444 O   0  0  0  0  0  0  0  0  0  0  0  0
   -4.0889   -1.5368   -1.3279 O   0  0  0  0  0  0  0  0  0  0  0  0
    5.2077    1.0128    0.1344 O   0  0  0  0  0  0  0  0  0  0  0  0
   -7.9297   -0.0417   -0.5605 O   0  5  0  0  0  0  0  0  0  0  0  0
   -2.4386   -0.1814   -1.3219 N   0  3  0  0  0  0  0  0  0  0  0  0
   -2.7944   -1.4246   -1.4090 N   0  0  0  0  0  0  0  0  0  0  0  0
   -5.8757    0.0301   -1.0281 N   0  0  0  0  0  0  0  0  0  0  0  0
   -0.2531   -0.2083   -0.1206 C   0  0  0  0  0  0  0  0  0  0  0  0
   -1.0858    0.2640   -1.3435 C   0  0  0  0  0  0  0  0  0  0  0  0
    1.1777    0.2028   -0.0448 C   0  0  0  0  0  0  0  0  0  0  0  0
    1.9436   -0.1675    1.0876 C   0  0  0  0  0  0  0  0  0  0  0  0
    1.8279    0.9476   -1.0581 C   0  0  0  0  0  0  0  0  0  0  0  0
    3.3114    0.1648    1.1954 C   0  0  0  0  0  0  0  0  0  0  0  0
    3.9543    0.8183    0.1204 C   0  0  0  0  0  0  0  0  0  0  0  0
    3.1962    1.2464   -0.9855 C   0  0  0  0  0  0  0  0  0  0  0  0
   -3.5410    0.5778   -1.2075 C   0  0  0  0  0  0  0  0  0  0  0  0
   -4.6113   -0.2997   -1.1810 C   0  0  0  0  0  0  0  0  0  0  0  0
    4.1095    0.6394    3.3247 C   0  0  0  0  0  0  0  0  0  0  0  0
    6.1156    0.2903   -0.5314 C   0  0  0  0  0  0  0  0  0  0  0  0
   -6.8463   -0.6047   -0.4777 C   0  0  0  0  0  0  0  0  0  0  0  0
   -6.7913   -1.8646    0.2384 C   0  0  0  0  0  0  0  0  0  0  0  0
  1 13  1  0  0  0  0
  1 18  1  0  0  0  0
  2  6  1  0  0  0  0
  2 17  1  0  0  0  0
  3 14  1  0  0  0  0
  3 19  1  0  0  0  0
  4 20  1  0  0  0  0
  5  6  2  0  0  0  0
  5  9  1  0  0  0  0
  5 16  1  0  0  0  0
  7 17  1  0  0  0  0
  7 20  2  0  0  0  0
  8  9  1  0  0  0  0
  8 10  1  0  0  0  0
 10 11  2  0  0  0  0
 10 12  1  0  0  0  0
 11 13  1  0  0  0  0
 12 15  2  0  0  0  0
 13 14  2  0  0  0  0
 14 15  1  0  0  0  0
 16 17  2  0  0  0  0
 20 21  1  0  0  0  0
M  CHG  2   4  -1   5   1
M  END
