2734551
  -OEChem-10081705533D

 20 22  0     1  0  0  0  0  0999 V2000
   -2.2468   -0.0282    0.1476 P   0  0  0  0  0  0  0  0  0  0  0  0
    1.1414    0.1006   -0.0519 P   0  0  0  0  0  0  0  0  0  0  0  0
   -2.4486   -0.6063    1.6955 C   0  0  1  0  0  0  0  0  0  0  0  0
    2.0868   -0.0745   -1.4119 C   0  0  1  0  0  0  0  0  0  0  0  0
   -1.9048   -1.4437   -0.6538 C   0  0  1  0  0  0  0  0  0  0  0  0
    2.3985    0.1149    1.0582 C   0  0  1  0  0  0  0  0  0  0  0  0
   -3.0515   -2.0228    1.4837 C   0  0  0  0  0  0  0  0  0  0  0  0
    3.0464   -1.2054   -0.9614 C   0  0  0  0  0  0  0  0  0  0  0  0
   -2.9358   -2.4002   -0.0110 C   0  0  0  0  0  0  0  0  0  0  0  0
    3.1645   -1.1466    0.5817 C   0  0  0  0  0  0  0  0  0  0  0  0
   -1.2755    1.2630    0.0285 C   0  0  0  0  0  0  0  0  0  0  0  0
    0.1545    1.3761   -0.0802 C   0  0  0  0  0  0  0  0  0  0  0  0
   -1.2238   -0.5896    2.6447 C   0  0  0  0  0  0  0  0  0  0  0  0
    1.3561   -0.3692   -2.7395 C   0  0  0  0  0  0  0  0  0  0  0  0
   -2.0445   -1.3724   -2.1942 C   0  0  0  0  0  0  0  0  0  0  0  0
    3.3549    1.3361    1.2066 C   0  0  0  0  0  0  0  0  0  0  0  0
   -2.0515    2.4567    0.0358 C   0  0  0  0  0  0  0  0  0  0  0  0
    0.7132    2.6730   -0.2274 C   0  0  0  0  0  0  0  0  0  0  0  0
   -1.4573    3.7248   -0.0389 C   0  0  0  0  0  0  0  0  0  0  0  0
   -0.0707    3.8340   -0.1735 C   0  0  0  0  0  0  0  0  0  0  0  0
  1  3  1  0  0  0  0
  1  5  1  0  0  0  0
  1 11  1  0  0  0  0
  2  4  1  0  0  0  0
  2  6  1  0  0  0  0
  2 12  1  0  0  0  0
  3  7  1  0  0  0  0
  3 13  1  0  0  0  0
  4  8  1  0  0  0  0
  4 14  1  0  0  0  0
  5  9  1  0  0  0  0
  5 15  1  0  0  0  0
  6 10  1  0  0  0  0
  6 16  1  0  0  0  0
  7  9  1  0  0  0  0
  8 10  1  0  0  0  0
 11 12  1  0  0  0  0
 11 17  2  0  0  0  0
 12 18  2  0  0  0  0
 17 19  1  0  0  0  0
 18 20  1  0  0  0  0
 19 20  2  0  0  0  0
M  END
