2734549
  -OEChem-10081705533D

 24 26  0     1  0  0  0  0  0999 V2000
   -2.4445    0.1206    0.1759 P   0  0  0  0  0  0  0  0  0  0  0  0
    0.9460    0.2773   -0.0332 P   0  0  0  0  0  0  0  0  0  0  0  0
   -2.6855   -0.4525    1.7240 C   0  0  1  0  0  0  0  0  0  0  0  0
    1.9032    0.1193   -1.3909 C   0  0  1  0  0  0  0  0  0  0  0  0
   -2.1254   -1.2981   -0.6343 C   0  0  1  0  0  0  0  0  0  0  0  0
    2.1919    0.2988    1.0972 C   0  0  1  0  0  0  0  0  0  0  0  0
   -3.3065   -1.8589    1.4886 C   0  0  0  0  0  0  0  0  0  0  0  0
    2.8473   -1.0193   -0.9257 C   0  0  0  0  0  0  0  0  0  0  0  0
   -3.1957   -2.2215   -0.0056 C   0  0  0  0  0  0  0  0  0  0  0  0
    2.9181   -0.9867    0.6206 C   0  0  0  0  0  0  0  0  0  0  0  0
   -1.4820    1.4224    0.0560 C   0  0  0  0  0  0  0  0  0  0  0  0
   -0.0560    1.5421   -0.0727 C   0  0  0  0  0  0  0  0  0  0  0  0
   -1.4818   -0.4451    2.7129 C   0  0  0  0  0  0  0  0  0  0  0  0
    1.1920   -0.1385   -2.7448 C   0  0  0  0  0  0  0  0  0  0  0  0
   -2.2349   -1.2657   -2.1863 C   0  0  0  0  0  0  0  0  0  0  0  0
    3.1295    1.5498    1.2399 C   0  0  0  0  0  0  0  0  0  0  0  0
   -2.2605    2.6146    0.0775 C   0  0  0  0  0  0  0  0  0  0  0  0
    0.4937    2.8403   -0.2541 C   0  0  0  0  0  0  0  0  0  0  0  0
   -1.8345   -0.8787    4.1576 C   0  0  0  0  0  0  0  0  0  0  0  0
    2.1183   -0.1889   -3.9791 C   0  0  0  0  0  0  0  0  0  0  0  0
   -1.8012   -2.5902   -2.8630 C   0  0  0  0  0  0  0  0  0  0  0  0
    4.3149    1.4954    2.2309 C   0  0  0  0  0  0  0  0  0  0  0  0
   -1.6759    3.8859   -0.0251 C   0  0  0  0  0  0  0  0  0  0  0  0
   -0.2917    3.9988   -0.2005 C   0  0  0  0  0  0  0  0  0  0  0  0
  1  3  1  0  0  0  0
  1  5  1  0  0  0  0
  1 11  1  0  0  0  0
  2  4  1  0  0  0  0
  2  6  1  0  0  0  0
  2 12  1  0  0  0  0
  3  7  1  0  0  0  0
  3 13  1  0  0  0  0
  4  8  1  0  0  0  0
  4 14  1  0  0  0  0
  5  9  1  0  0  0  0
  5 15  1  0  0  0  0
  6 10  1  0  0  0  0
  6 16  1  0  0  0  0
  7  9  1  0  0  0  0
  8 10  1  0  0  0  0
 11 12  1  0  0  0  0
 11 17  2  0  0  0  0
 12 18  2  0  0  0  0
 13 19  1  0  0  0  0
 14 20  1  0  0  0  0
 15 21  1  0  0  0  0
 16 22  1  0  0  0  0
 17 23  1  0  0  0  0
 18 24  1  0  0  0  0
 23 24  2  0  0  0  0
M  END
