2734553
  -OEChem-10081705533D

 20 22  0     1  0  0  0  0  0999 V2000
   -1.0688   -0.3010    0.4963 P   0  0  0  0  0  0  0  0  0  0  0  0
    2.0039    0.8476   -0.3636 P   0  0  0  0  0  0  0  0  0  0  0  0
   -2.0765   -0.4857    1.8281 C   0  0  2  0  0  0  0  0  0  0  0  0
    2.7575   -0.0655    0.8029 C   0  0  2  0  0  0  0  0  0  0  0  0
   -1.7953   -1.2827   -0.6385 C   0  0  2  0  0  0  0  0  0  0  0  0
    2.0097   -0.1014   -1.7275 C   0  0  2  0  0  0  0  0  0  0  0  0
   -3.0352   -1.6496    1.4643 C   0  0  0  0  0  0  0  0  0  0  0  0
    3.7221   -0.9045   -0.0738 C   0  0  0  0  0  0  0  0  0  0  0  0
   -3.1915   -1.6249   -0.0671 C   0  0  0  0  0  0  0  0  0  0  0  0
    2.9758   -1.2649   -1.3774 C   0  0  0  0  0  0  0  0  0  0  0  0
   -0.7093    1.2118    0.0497 C   0  0  0  0  0  0  0  0  0  0  0  0
    0.6342    1.6744   -0.1475 C   0  0  0  0  0  0  0  0  0  0  0  0
   -2.8323    0.7150    2.4631 C   0  0  0  0  0  0  0  0  0  0  0  0
    1.9256   -0.9061    1.8000 C   0  0  0  0  0  0  0  0  0  0  0  0
   -0.9534   -2.5745   -0.8569 C   0  0  0  0  0  0  0  0  0  0  0  0
    2.3803    0.6974   -3.0031 C   0  0  0  0  0  0  0  0  0  0  0  0
   -1.7569    2.1533   -0.1177 C   0  0  0  0  0  0  0  0  0  0  0  0
    0.8736    3.0686   -0.2788 C   0  0  0  0  0  0  0  0  0  0  0  0
   -1.5040    3.5281   -0.2607 C   0  0  0  0  0  0  0  0  0  0  0  0
   -0.1829    3.9903   -0.3083 C   0  0  0  0  0  0  0  0  0  0  0  0
  1  3  1  0  0  0  0
  1  5  1  0  0  0  0
  1 11  1  0  0  0  0
  2  4  1  0  0  0  0
  2  6  1  0  0  0  0
  2 12  1  0  0  0  0
  3  7  1  0  0  0  0
  3 13  1  0  0  0  0
  4  8  1  0  0  0  0
  4 14  1  0  0  0  0
  5  9  1  0  0  0  0
  5 15  1  0  0  0  0
  6 10  1  0  0  0  0
  6 16  1  0  0  0  0
  7  9  1  0  0  0  0
  8 10  1  0  0  0  0
 11 12  1  0  0  0  0
 11 17  2  0  0  0  0
 12 18  2  0  0  0  0
 17 19  1  0  0  0  0
 18 20  1  0  0  0  0
 19 20  2  0  0  0  0
M  END
