
  -OEChem-10071718523D

  6  4  0     0  0  0  0  0  0999 V2000
   -2.3491   -0.0063    0.0121 S   0  0  0  0  0  0  0  0  0  0  0  0
   -2.2164    1.4850   -0.0582 O   0  5  0  0  0  0  0  0  0  0  0  0
   -2.1059   -0.6156   -1.3363 O   0  5  0  0  0  0  0  0  0  0  0  0
   -1.3183   -0.5261    0.9553 O   0  0  0  0  0  0  0  0  0  0  0  0
   -3.7357   -0.3365    0.4346 O   0  0  0  0  0  0  0  0  0  0  0  0
   11.7254   -0.0006   -0.0075 Fe  0  2  0  0  0  0  0  0  0  0  0  0
  1  2  1  0  0  0  0
  1  3  1  0  0  0  0
  1  4  2  0  0  0  0
  1  5  2  0  0  0  0
M  CHG  3   2  -1   3  -1   6   2
M  END
