
  -OEChem-10071718523D

  6  4  0     0  0  0  0  0  0999 V2000
  -12.8834    0.0000    0.0009 Zn  0  2  0  0  0  0  0  0  0  0  0  0
    2.5767    0.0000   -0.0002 S   0  0  0  0  0  0  0  0  0  0  0  0
    2.3134    1.0403    1.0107 O   0  0  0  0  0  0  0  0  0  0  0  0
    3.6296   -0.9074    0.4913 O   0  5  0  0  0  0  0  0  0  0  0  0
    3.0210    0.6347   -1.2544 O   0  5  0  0  0  0  0  0  0  0  0  0
    1.3428   -0.7676   -0.2483 O   0  0  0  0  0  0  0  0  0  0  0  0
  2  3  2  0  0  0  0
  2  4  1  0  0  0  0
  2  5  1  0  0  0  0
  2  6  2  0  0  0  0
M  CHG  3   1   2   4  -1   5  -1
M  END
