3042267
  -OEChem-10081705543D

 23 25  0     1  0  0  0  0  0999 V2000
   -0.2626    0.8912   -0.2311 O   0  0  0  0  0  0  0  0  0  0  0  0
   -2.2206    0.3050    0.4252 O   0  0  0  0  0  0  0  0  0  0  0  0
   -5.1704   -0.3903   -1.9467 O   0  0  0  0  0  0  0  0  0  0  0  0
   -6.8011    1.2411   -1.7292 O   0  5  0  0  0  0  0  0  0  0  0  0
   -3.4284    0.8646   -1.8422 N   0  3  0  0  0  0  0  0  0  0  0  0
   -3.8670   -0.3523   -1.9602 N   0  0  0  0  0  0  0  0  0  0  0  0
    0.5215    0.4458    0.7768 C   0  0  2  0  0  0  0  0  0  0  0  0
    1.9341    0.9316    0.7471 C   0  0  0  0  0  0  0  0  0  0  0  0
    0.4636   -1.0504    0.7864 C   0  0  0  0  0  0  0  0  0  0  0  0
    2.8069    0.5871    1.8101 C   0  0  0  0  0  0  0  0  0  0  0  0
   -0.1722   -1.7514    1.8395 C   0  0  0  0  0  0  0  0  0  0  0  0
    2.4603    1.7172   -0.3075 C   0  0  0  0  0  0  0  0  0  0  0  0
    1.0025   -1.8015   -0.2870 C   0  0  0  0  0  0  0  0  0  0  0  0
   -2.0433    1.2076   -1.7113 C   0  0  0  0  0  0  0  0  0  0  0  0
   -1.4897    0.7830   -0.4384 C   0  0  0  0  0  0  0  0  0  0  0  0
    4.1582    0.9765    1.8061 C   0  0  0  0  0  0  0  0  0  0  0  0
   -0.2747   -3.1537    1.8176 C   0  0  0  0  0  0  0  0  0  0  0  0
    3.8104    2.1182   -0.3144 C   0  0  0  0  0  0  0  0  0  0  0  0
    0.9124   -3.2040   -0.3081 C   0  0  0  0  0  0  0  0  0  0  0  0
    4.6607    1.7405    0.7392 C   0  0  0  0  0  0  0  0  0  0  0  0
    0.2697   -3.8807    0.7439 C   0  0  0  0  0  0  0  0  0  0  0  0
   -4.4853    1.6907   -1.7821 C   0  0  0  0  0  0  0  0  0  0  0  0
   -5.6073    0.8786   -1.8161 C   0  0  0  0  0  0  0  0  0  0  0  0
  1  7  1  0  0  0  0
  1 15  1  0  0  0  0
  2 15  2  0  0  0  0
  3  6  1  0  0  0  0
  3 23  1  0  0  0  0
  4 23  1  0  0  0  0
  5  6  2  0  0  0  0
  5 14  1  0  0  0  0
  5 22  1  0  0  0  0
  7  8  1  0  0  0  0
  7  9  1  0  0  0  0
  8 10  2  0  0  0  0
  8 12  1  0  0  0  0
  9 11  2  0  0  0  0
  9 13  1  0  0  0  0
 10 16  1  0  0  0  0
 11 17  1  0  0  0  0
 12 18  2  0  0  0  0
 13 19  2  0  0  0  0
 14 15  1  0  0  0  0
 16 20  2  0  0  0  0
 17 21  2  0  0  0  0
 18 20  1  0  0  0  0
 19 21  1  0  0  0  0
 22 23  2  0  0  0  0
M  CHG  2   4  -1   5   1
M  END
