3044831
  -OEChem-10081705543D

 25 27  0     1  0  0  0  0  0999 V2000
   -8.9906   -3.2134    2.5664 Br  0  0  0  0  0  0  0  0  0  0  0  0
   -0.6377   -1.0021   -0.9409 O   0  0  0  0  0  0  0  0  0  0  0  0
   -2.7442   -0.7940    0.9643 O   0  5  0  0  0  0  0  0  0  0  0  0
    0.9635    0.4160   -1.0936 N   0  3  0  0  0  0  0  0  0  0  0  0
    0.6465   -0.8403   -1.0215 N   0  0  0  0  0  0  0  0  0  0  0  0
   -2.5168    0.3825   -0.8671 N   0  0  0  0  0  0  0  0  0  0  0  0
   -4.5500   -0.0836   -0.0836 N   0  0  0  0  0  0  0  0  0  0  0  0
    2.3270    0.8679   -1.1819 C   0  0  1  0  0  0  0  0  0  0  0  0
    3.1420    0.4049    0.0699 C   0  0  0  0  0  0  0  0  0  0  0  0
    4.5671    0.7999    0.2781 C   0  0  0  0  0  0  0  0  0  0  0  0
    2.8745    0.3825   -2.5552 C   0  0  0  0  0  0  0  0  0  0  0  0
   -0.1740    1.1382   -1.0767 C   0  0  0  0  0  0  0  0  0  0  0  0
    5.2805    0.2212    1.3582 C   0  0  0  0  0  0  0  0  0  0  0  0
    5.2686    1.7135   -0.5455 C   0  0  0  0  0  0  0  0  0  0  0  0
   -1.2079    0.2208   -0.9651 C   0  0  0  0  0  0  0  0  0  0  0  0
    6.6478    0.4840    1.5630 C   0  0  0  0  0  0  0  0  0  0  0  0
    6.6418    1.9614   -0.3679 C   0  0  0  0  0  0  0  0  0  0  0  0
    7.3346    1.3388    0.6841 C   0  0  0  0  0  0  0  0  0  0  0  0
   -3.2577   -0.1804    0.0218 C   0  0  0  0  0  0  0  0  0  0  0  0
   -5.5038   -0.8325    0.4875 C   0  0  0  0  0  0  0  0  0  0  0  0
   -6.8122   -0.3011    0.5396 C   0  0  0  0  0  0  0  0  0  0  0  0
   -5.2995   -2.1270    1.0329 C   0  0  0  0  0  0  0  0  0  0  0  0
   -7.8617   -1.0102    1.1559 C   0  0  0  0  0  0  0  0  0  0  0  0
   -6.3366   -2.8353    1.6608 C   0  0  0  0  0  0  0  0  0  0  0  0
   -7.6221   -2.2734    1.7271 C   0  0  0  0  0  0  0  0  0  0  0  0
  1 25  1  0  0  0  0
  2  5  1  0  0  0  0
  2 15  1  0  0  0  0
  3 19  1  0  0  0  0
  4  5  2  0  0  0  0
  4  8  1  0  0  0  0
  4 12  1  0  0  0  0
  6 15  1  0  0  0  0
  6 19  2  0  0  0  0
  7 19  1  0  0  0  0
  7 20  1  0  0  0  0
  8  9  1  0  0  0  0
  8 11  1  0  0  0  0
  9 10  1  0  0  0  0
 10 13  2  0  0  0  0
 10 14  1  0  0  0  0
 12 15  2  0  0  0  0
 13 16  1  0  0  0  0
 14 17  2  0  0  0  0
 16 18  2  0  0  0  0
 17 18  1  0  0  0  0
 20 21  2  0  0  0  0
 20 22  1  0  0  0  0
 21 23  1  0  0  0  0
 22 24  2  0  0  0  0
 23 25  2  0  0  0  0
 24 25  1  0  0  0  0
M  CHG  2   3  -1   4   1
M  END
