3061250
  -OEChem-10081705543D

 28 30  0     1  0  0  0  0  0999 V2000
    0.6002   -1.8185   -0.4578 O   0  0  0  0  0  0  0  0  0  0  0  0
   -1.9116   -2.0375    0.6268 O   0  0  0  0  0  0  0  0  0  0  0  0
   -9.6286    2.8571   -0.2528 O   0  5  0  0  0  0  0  0  0  0  0  0
  -10.5714    1.0886    0.1989 O   0  0  0  0  0  0  0  0  0  0  0  0
    2.2645   -0.4938   -0.7078 N   0  3  0  0  0  0  0  0  0  0  0  0
    1.8908   -1.7295   -0.5743 N   0  0  0  0  0  0  0  0  0  0  0  0
   -1.1680   -0.2209   -0.4017 N   0  0  0  0  0  0  0  0  0  0  0  0
   -3.3036   -0.4502    0.0351 N   0  0  0  0  0  0  0  0  0  0  0  0
    3.6315   -0.0856   -0.8436 C   0  0  1  0  0  0  0  0  0  0  0  0
    4.4256   -0.4092    0.4609 C   0  0  0  0  0  0  0  0  0  0  0  0
    4.2033   -0.7290   -2.1380 C   0  0  0  0  0  0  0  0  0  0  0  0
    5.8435    0.0315    0.6019 C   0  0  0  0  0  0  0  0  0  0  0  0
    1.1714    0.2867   -0.6907 C   0  0  0  0  0  0  0  0  0  0  0  0
    6.6237   -0.5003    1.6586 C   0  0  0  0  0  0  0  0  0  0  0  0
    6.4713    0.9526   -0.2724 C   0  0  0  0  0  0  0  0  0  0  0  0
    0.0969   -0.5675   -0.5156 C   0  0  0  0  0  0  0  0  0  0  0  0
    7.9898   -0.1860    1.7890 C   0  0  0  0  0  0  0  0  0  0  0  0
    7.8379    1.2596   -0.1610 C   0  0  0  0  0  0  0  0  0  0  0  0
    8.6009    0.6797    0.8655 C   0  0  0  0  0  0  0  0  0  0  0  0
   -4.4619   -1.0085    0.5750 C   0  0  0  0  0  0  0  0  0  0  0  0
   -5.7318   -0.2654    0.3934 C   0  0  0  0  0  0  0  0  0  0  0  0
   -2.1139   -0.9488    0.0962 C   0  0  0  0  0  0  0  0  0  0  0  0
   -6.9071   -0.8566    0.9042 C   0  0  0  0  0  0  0  0  0  0  0  0
   -5.8437    0.9895   -0.2486 C   0  0  0  0  0  0  0  0  0  0  0  0
   -8.2746    1.0414    0.1438 C   0  0  0  0  0  0  0  0  0  0  0  0
   -8.1529   -0.2188    0.7795 C   0  0  0  0  0  0  0  0  0  0  0  0
   -7.0914    1.6301   -0.3648 C   0  0  0  0  0  0  0  0  0  0  0  0
   -9.5095    1.6706    0.0281 C   0  0  0  0  0  0  0  0  0  0  0  0
  1  6  1  0  0  0  0
  1 16  1  0  0  0  0
  2 22  2  0  0  0  0
  3 28  1  0  0  0  0
  4 28  2  0  0  0  0
  5  6  2  0  0  0  0
  5  9  1  0  0  0  0
  5 13  1  0  0  0  0
  7 16  1  0  0  0  0
  7 22  1  0  0  0  0
  8 20  1  0  0  0  0
  8 22  1  0  0  0  0
  9 10  1  0  0  0  0
  9 11  1  0  0  0  0
 10 12  1  0  0  0  0
 12 14  2  0  0  0  0
 12 15  1  0  0  0  0
 13 16  2  0  0  0  0
 14 17  1  0  0  0  0
 15 18  2  0  0  0  0
 17 19  2  0  0  0  0
 18 19  1  0  0  0  0
 20 21  1  0  0  0  0
 21 23  2  0  0  0  0
 21 24  1  0  0  0  0
 23 26  1  0  0  0  0
 24 27  2  0  0  0  0
 25 26  2  0  0  0  0
 25 27  1  0  0  0  0
 25 28  1  0  0  0  0
M  CHG  2   3  -1   5   1
M  END
