3082702
  -OEChem-10081705543D

 15 16  0     0  0  0  0  0  0999 V2000
   -2.7462   -2.7799   -1.8017 O   0  0  0  0  0  0  0  0  0  0  0  0
   -4.6294   -1.7615   -1.8706 O   0  0  0  0  0  0  0  0  0  0  0  0
   -2.8218   -1.0126   -0.7523 N   0  0  0  0  0  0  0  0  0  0  0  0
   -1.6907   -2.6480   -1.3177 N   0  0  0  0  0  0  0  0  0  0  0  0
   -0.4923   -1.1227    0.0965 C   0  0  0  0  0  0  0  0  0  0  0  0
    0.3916   -0.0762   -0.6359 C   0  0  0  0  0  0  0  0  0  0  0  0
   -1.6580   -1.5636   -0.6438 C   0  0  0  0  0  0  0  0  0  0  0  0
    1.5324    0.5259    0.1146 C   0  0  0  0  0  0  0  0  0  0  0  0
    2.3926    1.4300   -0.5570 C   0  0  0  0  0  0  0  0  0  0  0  0
    1.8121    0.2516    1.4777 C   0  0  0  0  0  0  0  0  0  0  0  0
   -3.3171    0.1805   -0.2022 C   0  0  0  0  0  0  0  0  0  0  0  0
   -3.4686   -1.8421   -1.4965 C   0  0  0  0  0  0  0  0  0  0  0  0
    3.4830    2.0312    0.1015 C   0  0  0  0  0  0  0  0  0  0  0  0
    2.8936    0.8520    2.1448 C   0  0  0  0  0  0  0  0  0  0  0  0
    3.7315    1.7416    1.4544 C   0  0  0  0  0  0  0  0  0  0  0  0
  1  4  1  0  0  0  0
  1 12  1  0  0  0  0
  2 12  2  0  0  0  0
  3  7  1  0  0  0  0
  3 11  1  0  0  0  0
  3 12  1  0  0  0  0
  4  7  2  0  0  0  0
  5  6  1  0  0  0  0
  5  7  1  0  0  0  0
  6  8  1  0  0  0  0
  8  9  2  0  0  0  0
  8 10  1  0  0  0  0
  9 13  1  0  0  0  0
 10 14  2  0  0  0  0
 13 15  2  0  0  0  0
 14 15  1  0  0  0  0
M  END
