405169
  -OEChem-10081705543D

 16 17  0     0  0  0  0  0  0999 V2000
   -2.6511   -3.3090   -0.2555 Cl  0  0  0  0  0  0  0  0  0  0  0  0
    2.6757    2.6489   -0.1301 O   0  0  0  0  0  0  0  0  0  0  0  0
    1.6897    4.7531   -0.1429 O   0  5  0  0  0  0  0  0  0  0  0  0
    1.3233   -3.4596    1.1094 O   0  5  0  0  0  0  0  0  0  0  0  0
   -0.4859   -3.9549    1.6247 O   0  0  0  0  0  0  0  0  0  0  0  0
    0.8828    1.4336   -0.1518 N   0  3  0  0  0  0  0  0  0  0  0  0
    2.1828    1.4407   -0.1318 N   0  0  0  0  0  0  0  0  0  0  0  0
    0.1860   -3.1794    1.0654 N   0  3  0  0  0  0  0  0  0  0  0  0
    0.0916    0.3107   -0.1663 C   0  0  0  0  0  0  0  0  0  0  0  0
    0.5151   -0.9035    0.4250 C   0  0  0  0  0  0  0  0  0  0  0  0
   -0.2852   -2.0776    0.4587 C   0  0  0  0  0  0  0  0  0  0  0  0
   -1.1852    0.3219   -0.7685 C   0  0  0  0  0  0  0  0  0  0  0  0
   -1.5658   -2.0063   -0.1577 C   0  0  0  0  0  0  0  0  0  0  0  0
   -2.0071   -0.8139   -0.7648 C   0  0  0  0  0  0  0  0  0  0  0  0
    0.4907    2.7225   -0.1494 C   0  0  0  0  0  0  0  0  0  0  0  0
    1.6338    3.5035   -0.1426 C   0  0  0  0  0  0  0  0  0  0  0  0
  1 13  1  0  0  0  0
  2  7  1  0  0  0  0
  2 16  1  0  0  0  0
  3 16  1  0  0  0  0
  4  8  1  0  0  0  0
  5  8  2  0  0  0  0
  6  7  2  0  0  0  0
  6  9  1  0  0  0  0
  6 15  1  0  0  0  0
  8 11  1  0  0  0  0
  9 10  2  0  0  0  0
  9 12  1  0  0  0  0
 10 11  1  0  0  0  0
 11 13  2  0  0  0  0
 12 14  2  0  0  0  0
 13 14  1  0  0  0  0
 15 16  2  0  0  0  0
M  CHG  4   3  -1   4  -1   6   1   8   1
M  END
