405161
  -OEChem-10081705543D

 19 21  0     0  0  0  0  0  0999 V2000
    3.7911    3.7443   -0.2529 O   0  0  0  0  0  0  0  0  0  0  0  0
    2.3353   -2.1664    1.5505 O   0  5  0  0  0  0  0  0  0  0  0  0
    1.0416   -3.2230    0.5743 O   0  0  0  0  0  0  0  0  0  0  0  0
    2.7802    5.8329   -0.2540 O   0  5  0  0  0  0  0  0  0  0  0  0
   -1.3576   -1.8915   -0.0450 N   0  0  0  0  0  0  0  0  0  0  0  0
    2.0180    2.5045   -0.3234 N   0  3  0  0  0  0  0  0  0  0  0  0
    1.4231   -2.1454    0.8131 N   0  3  0  0  0  0  0  0  0  0  0  0
    3.3162    2.5300   -0.2800 N   0  0  0  0  0  0  0  0  0  0  0  0
   -2.4574   -2.3404   -0.7852 C   0  0  0  0  0  0  0  0  0  0  0  0
   -1.8060   -2.3102    1.2090 C   0  0  0  0  0  0  0  0  0  0  0  0
   -3.2029   -2.3123    0.5627 C   0  0  0  0  0  0  0  0  0  0  0  0
   -0.4224   -0.9508   -0.2557 C   0  0  0  0  0  0  0  0  0  0  0  0
    0.9027   -1.0265    0.2720 C   0  0  0  0  0  0  0  0  0  0  0  0
   -0.8380    0.2261   -0.9217 C   0  0  0  0  0  0  0  0  0  0  0  0
    1.6942    0.1539    0.2191 C   0  0  0  0  0  0  0  0  0  0  0  0
    1.2514    1.3668   -0.3576 C   0  0  0  0  0  0  0  0  0  0  0  0
   -0.0196    1.3606   -0.9673 C   0  0  0  0  0  0  0  0  0  0  0  0
    1.6044    3.7876   -0.3111 C   0  0  0  0  0  0  0  0  0  0  0  0
    2.7372    4.5824   -0.2725 C   0  0  0  0  0  0  0  0  0  0  0  0
  1  8  1  0  0  0  0
  1 19  1  0  0  0  0
  2  7  1  0  0  0  0
  3  7  2  0  0  0  0
  4 19  1  0  0  0  0
  5  9  1  0  0  0  0
  5 10  1  0  0  0  0
  5 12  1  0  0  0  0
  6  8  2  0  0  0  0
  6 16  1  0  0  0  0
  6 18  1  0  0  0  0
  7 13  1  0  0  0  0
  9 11  1  0  0  0  0
 10 11  1  0  0  0  0
 12 13  2  0  0  0  0
 12 14  1  0  0  0  0
 13 15  1  0  0  0  0
 14 17  2  0  0  0  0
 15 16  2  0  0  0  0
 16 17  1  0  0  0  0
 18 19  2  0  0  0  0
M  CHG  4   2  -1   4  -1   6   1   7   1
M  END
