411776
  -OEChem-10081705543D

 13 14  0     0  0  0  0  0  0999 V2000
    2.1001    4.0362   -0.7863 Cl  0  0  0  0  0  0  0  0  0  0  0  0
   -1.9932   -2.3581    1.0253 O   0  0  0  0  0  0  0  0  0  0  0  0
   -1.3622   -4.2659    0.1919 O   0  0  0  0  0  0  0  0  0  0  0  0
   -0.6134   -1.0863    0.2578 N   0  3  0  0  0  0  0  0  0  0  0  0
   -1.6185   -1.2460    0.9616 N   0  0  0  0  0  0  0  0  0  0  0  0
    0.0079    0.0782    0.0095 C   0  0  0  0  0  0  0  0  0  0  0  0
    1.4133    0.1517   -0.1609 C   0  0  0  0  0  0  0  0  0  0  0  0
   -0.7215    1.2899   -0.0919 C   0  0  0  0  0  0  0  0  0  0  0  0
   -0.3284   -2.2647   -0.1562 C   0  0  0  0  0  0  0  0  0  0  0  0
    2.0644    1.3739   -0.4083 C   0  0  0  0  0  0  0  0  0  0  0  0
   -0.0808    2.5175   -0.3457 C   0  0  0  0  0  0  0  0  0  0  0  0
   -1.2536   -3.0603    0.3568 C   0  0  0  0  0  0  0  0  0  0  0  0
    1.3176    2.5629   -0.4985 C   0  0  0  0  0  0  0  0  0  0  0  0
  1 13  1  0  0  0  0
  2  5  1  0  0  0  0
  2 12  1  0  0  0  0
  3 12  2  0  0  0  0
  4  5  1  0  0  0  0
  4  6  1  0  0  0  0
  4  9  2  0  0  0  0
  6  7  2  0  0  0  0
  6  8  1  0  0  0  0
  7 10  1  0  0  0  0
  8 11  2  0  0  0  0
  9 12  1  0  0  0  0
 10 13  2  0  0  0  0
 11 13  1  0  0  0  0
M  CHG  1   4   1
M  END
