413635
  -OEChem-10081705533D

 13 14  0     0  0  0  0  0  0999 V2000
   -2.4285   -2.3560    1.5366 O   0  0  0  0  0  0  0  0  0  0  0  0
   -2.0801   -1.5281    3.5174 O   0  0  0  0  0  0  0  0  0  0  0  0
   -0.9816   -1.4610    0.4495 N   0  3  0  0  0  0  0  0  0  0  0  0
   -1.9317   -2.2481    0.4768 N   0  0  0  0  0  0  0  0  0  0  0  0
   -0.1999   -1.1944   -0.6859 C   0  0  0  0  0  0  0  0  0  0  0  0
    0.4678    0.1346   -0.7451 C   0  0  0  0  0  0  0  0  0  0  0  0
   -0.8811   -1.0199    1.6466 C   0  0  0  0  0  0  0  0  0  0  0  0
    1.8774    0.2576   -0.7250 C   0  0  0  0  0  0  0  0  0  0  0  0
   -0.3090    1.3153   -0.8124 C   0  0  0  0  0  0  0  0  0  0  0  0
    2.4932    1.5228   -0.7557 C   0  0  0  0  0  0  0  0  0  0  0  0
    0.3026    2.5824   -0.8425 C   0  0  0  0  0  0  0  0  0  0  0  0
   -1.8368   -1.6361    2.3255 C   0  0  0  0  0  0  0  0  0  0  0  0
    1.7047    2.6858   -0.8107 C   0  0  0  0  0  0  0  0  0  0  0  0
  1  4  1  0  0  0  0
  1 12  1  0  0  0  0
  2 12  2  0  0  0  0
  3  4  1  0  0  0  0
  3  5  1  0  0  0  0
  3  7  2  0  0  0  0
  5  6  1  0  0  0  0
  6  8  2  0  0  0  0
  6  9  1  0  0  0  0
  7 12  1  0  0  0  0
  8 10  1  0  0  0  0
  9 11  2  0  0  0  0
 10 13  2  0  0  0  0
 11 13  1  0  0  0  0
M  CHG  1   3   1
M  END
