414242
  -OEChem-10081705533D

  7  7  0     0  0  0  0  0  0999 V2000
   -0.8363    1.6295    0.1278 O   0  0  0  0  0  0  0  0  0  0  0  0
   -2.8770    0.9139   -0.1203 O   0  0  0  0  0  0  0  0  0  0  0  0
    0.2175   -0.0811    0.0164 N   0  3  0  0  0  0  0  0  0  0  0  0
    0.2341    1.1435    0.1557 N   0  0  0  0  0  0  0  0  0  0  0  0
   -1.0153   -0.4005   -0.0926 C   0  0  0  0  0  0  0  0  0  0  0  0
    1.3428   -0.9044   -0.0199 C   0  0  0  0  0  0  0  0  0  0  0  0
   -1.6692    0.7492   -0.0284 C   0  0  0  0  0  0  0  0  0  0  0  0
  1  4  1  0  0  0  0
  1  7  1  0  0  0  0
  2  7  2  0  0  0  0
  3  4  1  0  0  0  0
  3  5  2  0  0  0  0
  3  6  1  0  0  0  0
  5  7  1  0  0  0  0
M  CHG  1   3   1
M  END
