424643
  -OEChem-10081705533D

 18 20  0     0  0  0  0  0  0999 V2000
   -0.8329    3.2891   -0.1607 O   0  0  0  0  0  0  0  0  0  0  0  0
   -2.8259    2.6507    0.2435 O   0  0  0  0  0  0  0  0  0  0  0  0
    0.2137    1.5728   -0.1185 N   0  3  0  0  0  0  0  0  0  0  0  0
    0.2172    2.7979   -0.2506 N   0  0  0  0  0  0  0  0  0  0  0  0
   -1.0184    1.2167    0.0195 C   0  0  0  0  0  0  0  0  0  0  0  0
    1.3540    0.8709   -0.1616 C   0  0  0  0  0  0  0  0  0  0  0  0
   -1.6113   -0.0513    0.1436 C   0  0  0  0  0  0  0  0  0  0  0  0
   -1.6467    2.4063    0.0321 C   0  0  0  0  0  0  0  0  0  0  0  0
    2.4258    1.1998    0.7058 C   0  0  0  0  0  0  0  0  0  0  0  0
    1.5290   -0.2161   -1.0510 C   0  0  0  0  0  0  0  0  0  0  0  0
   -2.8898   -0.3144   -0.4150 C   0  0  0  0  0  0  0  0  0  0  0  0
   -0.9677   -1.1307    0.8013 C   0  0  0  0  0  0  0  0  0  0  0  0
    3.6214    0.4577    0.7020 C   0  0  0  0  0  0  0  0  0  0  0  0
    2.7209   -0.9647   -1.0564 C   0  0  0  0  0  0  0  0  0  0  0  0
   -3.4877   -1.5858   -0.3422 C   0  0  0  0  0  0  0  0  0  0  0  0
   -1.5451   -2.4137    0.8595 C   0  0  0  0  0  0  0  0  0  0  0  0
    3.7660   -0.6293   -0.1774 C   0  0  0  0  0  0  0  0  0  0  0  0
   -2.8079   -2.6408    0.2873 C   0  0  0  0  0  0  0  0  0  0  0  0
  1  4  1  0  0  0  0
  1  8  1  0  0  0  0
  2  8  2  0  0  0  0
  3  4  1  0  0  0  0
  3  5  2  0  0  0  0
  3  6  1  0  0  0  0
  5  7  1  0  0  0  0
  5  8  1  0  0  0  0
  6  9  2  0  0  0  0
  6 10  1  0  0  0  0
  7 11  2  0  0  0  0
  7 12  1  0  0  0  0
  9 13  1  0  0  0  0
 10 14  2  0  0  0  0
 11 15  1  0  0  0  0
 12 16  2  0  0  0  0
 13 17  2  0  0  0  0
 14 17  1  0  0  0  0
 15 18  2  0  0  0  0
 16 18  1  0  0  0  0
M  CHG  1   3   1
M  END
