4238
  -OEChem-10081705533D

 17 18  0     0  0  0  0  0  0999 V2000
   -0.9009   -4.9218   -0.7795 O   0  0  0  0  0  0  0  0  0  0  0  0
    1.6254   -0.0650    0.7009 O   0  0  0  0  0  0  0  0  0  0  0  0
    1.5118    4.1340    0.3676 O   0  0  0  0  0  0  0  0  0  0  0  0
    2.7335    2.5552    0.9103 O   0  5  0  0  0  0  0  0  0  0  0  0
   -0.8070   -2.3674    0.2812 N   0  0  0  0  0  0  0  0  0  0  0  0
   -0.1215   -1.2922    0.4519 N   0  3  0  0  0  0  0  0  0  0  0  0
    1.1595   -1.2803    0.6609 N   0  0  0  0  0  0  0  0  0  0  0  0
    0.6384    2.0935    0.3973 N   0  0  0  0  0  0  0  0  0  0  0  0
   -1.5676   -2.5515   -0.8985 C   0  0  0  0  0  0  0  0  0  0  0  0
   -0.7218   -3.4503    1.1860 C   0  0  0  0  0  0  0  0  0  0  0  0
   -1.0065   -3.7828   -1.6577 C   0  0  0  0  0  0  0  0  0  0  0  0
   -0.1610   -4.6860    0.4359 C   0  0  0  0  0  0  0  0  0  0  0  0
   -0.5399   -0.0141    0.3954 C   0  0  0  0  0  0  0  0  0  0  0  0
    0.5909    0.7805    0.5075 C   0  0  0  0  0  0  0  0  0  0  0  0
    1.6154    2.9144    0.5571 C   0  0  0  0  0  0  0  0  0  0  0  0
    0.6742    4.8610   -0.3844 C   0  0  0  0  0  0  0  0  0  0  0  0
    0.7830    6.3535   -0.0203 C   0  0  0  0  0  0  0  0  0  0  0  0
  1 11  1  0  0  0  0
  1 12  1  0  0  0  0
  2  7  1  0  0  0  0
  2 14  1  0  0  0  0
  3 15  1  0  0  0  0
  3 16  1  0  0  0  0
  4 15  1  0  0  0  0
  5  6  1  0  0  0  0
  5  9  1  0  0  0  0
  5 10  1  0  0  0  0
  6  7  2  0  0  0  0
  6 13  1  0  0  0  0
  8 14  1  0  0  0  0
  8 15  2  0  0  0  0
  9 11  1  0  0  0  0
 10 12  1  0  0  0  0
 13 14  2  0  0  0  0
 16 17  1  0  0  0  0
M  CHG  2   4  -1   6   1
M  END
