4239
  -OEChem-10081705533D

 17 18  0     0  0  0  0  0  0999 V2000
   -1.2446   -4.9901   -1.1121 O   0  0  0  0  0  0  0  0  0  0  0  0
    1.1422   -0.1190    0.3389 O   0  0  0  0  0  0  0  0  0  0  0  0
    1.2296    3.9476    0.5262 O   0  0  0  0  0  0  0  0  0  0  0  0
    2.1171    2.2904   -0.4949 O   0  0  0  0  0  0  0  0  0  0  0  0
   -1.2368   -2.4386   -0.0512 N   0  0  0  0  0  0  0  0  0  0  0  0
   -0.5838   -1.3545    0.1486 N   0  3  0  0  0  0  0  0  0  0  0  0
    0.7106   -1.3353    0.2011 N   0  0  0  0  0  0  0  0  0  0  0  0
    0.1525    2.0387    0.4774 N   0  0  0  0  0  0  0  0  0  0  0  0
   -1.9532   -2.6292   -1.2543 C   0  0  0  0  0  0  0  0  0  0  0  0
   -1.1340   -3.5174    0.8545 C   0  0  0  0  0  0  0  0  0  0  0  0
   -1.3585   -3.8563   -1.9964 C   0  0  0  0  0  0  0  0  0  0  0  0
   -0.5260   -4.7347    0.1120 C   0  0  0  0  0  0  0  0  0  0  0  0
   -1.0415   -0.0956    0.2901 C   0  0  0  0  0  0  0  0  0  0  0  0
    0.0814    0.7171    0.3837 C   0  0  0  0  0  0  0  0  0  0  0  0
    1.1924    2.7570    0.1647 C   0  0  0  0  0  0  0  0  0  0  0  0
    2.2680    4.8033    0.5541 C   0  0  0  0  0  0  0  0  0  0  0  0
    1.8329    6.2561    0.8100 C   0  0  0  0  0  0  0  0  0  0  0  0
  1 11  1  0  0  0  0
  1 12  1  0  0  0  0
  2  7  1  0  0  0  0
  2 14  1  0  0  0  0
  3 15  1  0  0  0  0
  3 16  1  0  0  0  0
  4 15  2  0  0  0  0
  5  6  1  0  0  0  0
  5  9  1  0  0  0  0
  5 10  1  0  0  0  0
  6  7  2  0  0  0  0
  6 13  1  0  0  0  0
  8 14  1  0  0  0  0
  8 15  1  0  0  0  0
  9 11  1  0  0  0  0
 10 12  1  0  0  0  0
 13 14  2  0  0  0  0
 16 17  1  0  0  0  0
M  CHG  1   6   1
M  END
