482471
  -OEChem-10081705543D

 27 30  0     0  0  0  0  0  0999 V2000
    7.1391    0.2593   -2.5076 Cl  0  0  0  0  0  0  0  0  0  0  0  0
   -0.3610   -1.4053    0.2095 S   0  0  0  0  0  0  0  0  0  0  0  0
    7.2953    1.8030    0.0564 F   0  0  0  0  0  0  0  0  0  0  0  0
    1.4893    4.3741    1.2635 O   0  0  0  0  0  0  0  0  0  0  0  0
    2.0183    0.1156    0.4935 O   0  0  0  0  0  0  0  0  0  0  0  0
   -0.4772    3.2638    1.6135 O   0  5  0  0  0  0  0  0  0  0  0  0
    2.6426    2.8243    0.3329 N   0  3  0  0  0  0  0  0  0  0  0  0
   -2.4446   -3.0614    0.2972 N   0  0  0  0  0  0  0  0  0  0  0  0
   -3.1041   -0.9439    0.2843 N   0  0  0  0  0  0  0  0  0  0  0  0
    2.6364    4.0548    0.7407 N   0  0  0  0  0  0  0  0  0  0  0  0
    1.4528    2.2452    0.6438 C   0  0  0  0  0  0  0  0  0  0  0  0
   -3.7784   -3.0669    0.3158 C   0  0  0  0  0  0  0  0  0  0  0  0
    3.7138    2.2849   -0.3284 C   0  0  0  0  0  0  0  0  0  0  0  0
   -4.1912   -1.7329    0.3107 C   0  0  0  0  0  0  0  0  0  0  0  0
   -0.2721    0.4002    0.3722 C   0  0  0  0  0  0  0  0  0  0  0  0
    1.0868    0.9107    0.4917 C   0  0  0  0  0  0  0  0  0  0  0  0
   -2.0486   -1.7809    0.2696 C   0  0  0  0  0  0  0  0  0  0  0  0
   -4.6997   -4.1270    0.3310 C   0  0  0  0  0  0  0  0  0  0  0  0
    5.0251    2.3492    0.1949 C   0  0  0  0  0  0  0  0  0  0  0  0
    3.5189    1.6223   -1.5625 C   0  0  0  0  0  0  0  0  0  0  0  0
    0.7033    3.2813    1.1988 C   0  0  0  0  0  0  0  0  0  0  0  0
   -5.5598   -1.4129    0.3248 C   0  0  0  0  0  0  0  0  0  0  0  0
   -6.0734   -3.8114    0.3366 C   0  0  0  0  0  0  0  0  0  0  0  0
   -6.5009   -2.4648    0.3346 C   0  0  0  0  0  0  0  0  0  0  0  0
    6.1031    1.7308   -0.4722 C   0  0  0  0  0  0  0  0  0  0  0  0
    4.5845    0.9959   -2.2298 C   0  0  0  0  0  0  0  0  0  0  0  0
    5.8812    1.0415   -1.6843 C   0  0  0  0  0  0  0  0  0  0  0  0
  1 27  1  0  0  0  0
  2 15  1  0  0  0  0
  2 17  1  0  0  0  0
  3 25  1  0  0  0  0
  4 10  1  0  0  0  0
  4 21  1  0  0  0  0
  5 16  2  0  0  0  0
  6 21  1  0  0  0  0
  7 10  2  0  0  0  0
  7 11  1  0  0  0  0
  7 13  1  0  0  0  0
  8 12  1  0  0  0  0
  8 17  1  0  0  0  0
  9 14  1  0  0  0  0
  9 17  2  0  0  0  0
 11 16  1  0  0  0  0
 11 21  2  0  0  0  0
 12 14  1  0  0  0  0
 12 18  2  0  0  0  0
 13 19  2  0  0  0  0
 13 20  1  0  0  0  0
 14 22  2  0  0  0  0
 15 16  1  0  0  0  0
 18 23  1  0  0  0  0
 19 25  1  0  0  0  0
 20 26  2  0  0  0  0
 22 24  1  0  0  0  0
 23 24  2  0  0  0  0
 25 27  2  0  0  0  0
 26 27  1  0  0  0  0
M  CHG  2   6  -1   7   1
M  END
