482449
  -OEChem-10081705543D

 26 29  0     0  0  0  0  0  0999 V2000
   -0.8893   -1.4175    0.4095 S   0  0  0  0  0  0  0  0  0  0  0  0
    0.9520    4.3521    1.4955 O   0  0  0  0  0  0  0  0  0  0  0  0
    1.4716    0.1110    0.6605 O   0  0  0  0  0  0  0  0  0  0  0  0
   -1.0362    3.2563    1.7861 O   0  5  0  0  0  0  0  0  0  0  0  0
    2.1018    2.8114    0.5449 N   0  3  0  0  0  0  0  0  0  0  0  0
   -2.9635   -3.0760    0.4968 N   0  0  0  0  0  0  0  0  0  0  0  0
   -3.6292   -0.9574    0.4841 N   0  0  0  0  0  0  0  0  0  0  0  0
    2.1045    4.0331    0.9812 N   0  0  0  0  0  0  0  0  0  0  0  0
    3.1720    2.2725   -0.1213 C   0  0  0  0  0  0  0  0  0  0  0  0
    0.9051    2.2367    0.8354 C   0  0  0  0  0  0  0  0  0  0  0  0
   -4.2972   -3.0831    0.5119 C   0  0  0  0  0  0  0  0  0  0  0  0
   -4.7127   -1.7494    0.5076 C   0  0  0  0  0  0  0  0  0  0  0  0
    0.5378    0.9039    0.6668 C   0  0  0  0  0  0  0  0  0  0  0  0
   -0.8192    0.3905    0.5485 C   0  0  0  0  0  0  0  0  0  0  0  0
   -2.5743   -1.7940    0.4699 C   0  0  0  0  0  0  0  0  0  0  0  0
    4.4845    2.3341    0.3977 C   0  0  0  0  0  0  0  0  0  0  0  0
    2.9749    1.6097   -1.3553 C   0  0  0  0  0  0  0  0  0  0  0  0
    5.3452    1.0204   -1.4895 C   0  0  0  0  0  0  0  0  0  0  0  0
    5.5551    1.7148   -0.2760 C   0  0  0  0  0  0  0  0  0  0  0  0
    4.0388    0.9793   -2.0223 C   0  0  0  0  0  0  0  0  0  0  0  0
   -5.2145   -4.1448    0.5226 C   0  0  0  0  0  0  0  0  0  0  0  0
    0.1544    3.2705    1.3951 C   0  0  0  0  0  0  0  0  0  0  0  0
   -6.0817   -1.4316    0.5185 C   0  0  0  0  0  0  0  0  0  0  0  0
   -6.5893   -3.8319    0.5244 C   0  0  0  0  0  0  0  0  0  0  0  0
   -7.0199   -2.4864    0.5235 C   0  0  0  0  0  0  0  0  0  0  0  0
    6.4444    0.3418   -2.2117 C   0  0  0  0  0  0  0  0  0  0  0  0
  1 14  1  0  0  0  0
  1 15  1  0  0  0  0
  2  8  1  0  0  0  0
  2 22  1  0  0  0  0
  3 13  2  0  0  0  0
  4 22  1  0  0  0  0
  5  8  2  0  0  0  0
  5  9  1  0  0  0  0
  5 10  1  0  0  0  0
  6 11  1  0  0  0  0
  6 15  1  0  0  0  0
  7 12  1  0  0  0  0
  7 15  2  0  0  0  0
  9 16  2  0  0  0  0
  9 17  1  0  0  0  0
 10 13  1  0  0  0  0
 10 22  2  0  0  0  0
 11 12  1  0  0  0  0
 11 21  2  0  0  0  0
 12 23  2  0  0  0  0
 13 14  1  0  0  0  0
 16 19  1  0  0  0  0
 17 20  2  0  0  0  0
 18 19  2  0  0  0  0
 18 20  1  0  0  0  0
 18 26  1  0  0  0  0
 21 24  1  0  0  0  0
 23 25  1  0  0  0  0
 24 25  2  0  0  0  0
M  CHG  2   4  -1   5   1
M  END
