482447
  -OEChem-10081705543D

 25 28  0     0  0  0  0  0  0999 V2000
   -0.3407   -1.4113    0.2044 S   0  0  0  0  0  0  0  0  0  0  0  0
    1.5124    4.3691    1.2634 O   0  0  0  0  0  0  0  0  0  0  0  0
    2.0349    0.1114    0.4797 O   0  0  0  0  0  0  0  0  0  0  0  0
   -0.4602    3.2591    1.6079 O   0  5  0  0  0  0  0  0  0  0  0  0
    2.6629    2.8200    0.3305 N   0  3  0  0  0  0  0  0  0  0  0  0
   -2.4223   -3.0676    0.2943 N   0  0  0  0  0  0  0  0  0  0  0  0
   -3.0836   -0.9501    0.2806 N   0  0  0  0  0  0  0  0  0  0  0  0
    2.6612    4.0503    0.7413 N   0  0  0  0  0  0  0  0  0  0  0  0
   -3.7564   -3.0736    0.3118 C   0  0  0  0  0  0  0  0  0  0  0  0
    1.4713    2.2412    0.6374 C   0  0  0  0  0  0  0  0  0  0  0  0
   -4.1697   -1.7394    0.3068 C   0  0  0  0  0  0  0  0  0  0  0  0
    3.7335    2.2784   -0.3318 C   0  0  0  0  0  0  0  0  0  0  0  0
   -2.0280   -1.7865    0.2659 C   0  0  0  0  0  0  0  0  0  0  0  0
   -0.2564    0.3951    0.3601 C   0  0  0  0  0  0  0  0  0  0  0  0
    1.1031    0.9057    0.4808 C   0  0  0  0  0  0  0  0  0  0  0  0
   -4.6756   -4.1342    0.3256 C   0  0  0  0  0  0  0  0  0  0  0  0
   -5.5392   -1.4208    0.3202 C   0  0  0  0  0  0  0  0  0  0  0  0
    0.7234    3.2783    1.1950 C   0  0  0  0  0  0  0  0  0  0  0  0
    5.0469    2.3398    0.1908 C   0  0  0  0  0  0  0  0  0  0  0  0
    3.5351    1.6154   -1.5668 C   0  0  0  0  0  0  0  0  0  0  0  0
   -6.0501   -3.8202    0.3292 C   0  0  0  0  0  0  0  0  0  0  0  0
   -6.4790   -2.4741    0.3277 C   0  0  0  0  0  0  0  0  0  0  0  0
    6.1177    1.7164   -0.4784 C   0  0  0  0  0  0  0  0  0  0  0  0
    4.5984    0.9835   -2.2345 C   0  0  0  0  0  0  0  0  0  0  0  0
    5.8912    1.0287   -1.6853 C   0  0  0  0  0  0  0  0  0  0  0  0
  1 13  1  0  0  0  0
  1 14  1  0  0  0  0
  2  8  1  0  0  0  0
  2 18  1  0  0  0  0
  3 15  2  0  0  0  0
  4 18  1  0  0  0  0
  5  8  2  0  0  0  0
  5 10  1  0  0  0  0
  5 12  1  0  0  0  0
  6  9  1  0  0  0  0
  6 13  1  0  0  0  0
  7 11  1  0  0  0  0
  7 13  2  0  0  0  0
  9 11  1  0  0  0  0
  9 16  2  0  0  0  0
 10 15  1  0  0  0  0
 10 18  2  0  0  0  0
 11 17  2  0  0  0  0
 12 19  2  0  0  0  0
 12 20  1  0  0  0  0
 14 15  1  0  0  0  0
 16 21  1  0  0  0  0
 17 22  1  0  0  0  0
 19 23  1  0  0  0  0
 20 24  2  0  0  0  0
 21 22  2  0  0  0  0
 23 25  2  0  0  0  0
 24 25  1  0  0  0  0
M  CHG  2   4  -1   5   1
M  END
