482459
  -OEChem-10081705543D

 26 29  0     0  0  0  0  0  0999 V2000
    7.6702    1.7851    0.1583 Cl  0  0  0  0  0  0  0  0  0  0  0  0
   -0.3569   -1.4121    0.1984 S   0  0  0  0  0  0  0  0  0  0  0  0
    1.4957    4.3655    1.2590 O   0  0  0  0  0  0  0  0  0  0  0  0
    2.0175    0.1104    0.4705 O   0  0  0  0  0  0  0  0  0  0  0  0
   -0.4777    3.2592    1.5967 O   0  5  0  0  0  0  0  0  0  0  0  0
    2.6460    2.8179    0.3244 N   0  3  0  0  0  0  0  0  0  0  0  0
   -2.4378   -3.0682    0.2878 N   0  0  0  0  0  0  0  0  0  0  0  0
   -3.0996   -0.9506    0.2745 N   0  0  0  0  0  0  0  0  0  0  0  0
    2.6437    4.0464    0.7383 N   0  0  0  0  0  0  0  0  0  0  0  0
    1.4537    2.2409    0.6299 C   0  0  0  0  0  0  0  0  0  0  0  0
   -3.7719   -3.0742    0.3053 C   0  0  0  0  0  0  0  0  0  0  0  0
   -4.1849   -1.7401    0.3003 C   0  0  0  0  0  0  0  0  0  0  0  0
    3.7169    2.2772   -0.3377 C   0  0  0  0  0  0  0  0  0  0  0  0
   -2.0440   -1.7871    0.2598 C   0  0  0  0  0  0  0  0  0  0  0  0
   -0.2739    0.3939    0.3532 C   0  0  0  0  0  0  0  0  0  0  0  0
    1.0852    0.9055    0.4723 C   0  0  0  0  0  0  0  0  0  0  0  0
   -4.6911   -4.1348    0.3187 C   0  0  0  0  0  0  0  0  0  0  0  0
   -5.5549   -1.4215    0.3135 C   0  0  0  0  0  0  0  0  0  0  0  0
    0.7052    3.2769    1.1872 C   0  0  0  0  0  0  0  0  0  0  0  0
    5.0299    2.3406    0.1839 C   0  0  0  0  0  0  0  0  0  0  0  0
    3.5185    1.6133   -1.5721 C   0  0  0  0  0  0  0  0  0  0  0  0
   -6.0655   -3.8209    0.3225 C   0  0  0  0  0  0  0  0  0  0  0  0
   -6.4942   -2.4744    0.3210 C   0  0  0  0  0  0  0  0  0  0  0  0
    6.1057    1.7186   -0.4846 C   0  0  0  0  0  0  0  0  0  0  0  0
    4.5819    0.9821   -2.2395 C   0  0  0  0  0  0  0  0  0  0  0  0
    5.8749    1.0297   -1.6917 C   0  0  0  0  0  0  0  0  0  0  0  0
  1 24  1  0  0  0  0
  2 14  1  0  0  0  0
  2 15  1  0  0  0  0
  3  9  1  0  0  0  0
  3 19  1  0  0  0  0
  4 16  2  0  0  0  0
  5 19  1  0  0  0  0
  6  9  2  0  0  0  0
  6 10  1  0  0  0  0
  6 13  1  0  0  0  0
  7 11  1  0  0  0  0
  7 14  1  0  0  0  0
  8 12  1  0  0  0  0
  8 14  2  0  0  0  0
 10 16  1  0  0  0  0
 10 19  2  0  0  0  0
 11 12  1  0  0  0  0
 11 17  2  0  0  0  0
 12 18  2  0  0  0  0
 13 20  2  0  0  0  0
 13 21  1  0  0  0  0
 15 16  1  0  0  0  0
 17 22  1  0  0  0  0
 18 23  1  0  0  0  0
 20 24  1  0  0  0  0
 21 25  2  0  0  0  0
 22 23  2  0  0  0  0
 24 26  2  0  0  0  0
 25 26  1  0  0  0  0
M  CHG  2   5  -1   6   1
M  END
