5281040
  -OEChem-10081705543D

 43 47  0     1  0  0  0  0  0999 V2000
  -10.0456   -0.5716    1.2533 Cl  0  0  0  0  0  0  0  0  0  0  0  0
    1.6315   -0.8973    1.0352 S   0  0  0  0  0  0  0  0  0  0  0  0
    2.1590   -5.8045    1.6122 O   0  0  0  0  0  0  0  0  0  0  0  0
    0.2881   -5.2154    0.9220 O   0  0  0  0  0  0  0  0  0  0  0  0
    6.3206   -3.2885   -2.8032 O   0  0  0  0  0  0  0  0  0  0  0  0
   -5.8900    2.3749    1.2347 N   0  0  0  0  0  0  0  0  0  0  0  0
    0.1507   -2.8086    2.4881 C   0  0  2  0  0  0  0  0  0  0  0  0
   -1.2115   -3.3506    2.9821 C   0  0  0  0  0  0  0  0  0  0  0  0
   -0.4342   -2.3506    3.8454 C   0  0  0  0  0  0  0  0  0  0  0  0
    0.0735   -1.7846    1.3141 C   0  0  0  0  0  0  0  0  0  0  0  0
    1.3230   -3.8433    2.5328 C   0  0  0  0  0  0  0  0  0  0  0  0
    1.2437   -4.9896    1.6494 C   0  0  0  0  0  0  0  0  0  0  0  0
    1.2425    0.2758   -0.2967 C   0  0  2  0  0  0  0  0  0  0  0  0
    2.5016    0.7433   -1.0925 C   0  0  0  0  0  0  0  0  0  0  0  0
    0.5216    1.4229    0.3318 C   0  0  0  0  0  0  0  0  0  0  0  0
    3.3190   -0.3177   -1.8749 C   0  0  0  0  0  0  0  0  0  0  0  0
   -0.8835    1.5567    0.2279 C   0  0  0  0  0  0  0  0  0  0  0  0
    1.2170    2.4097    1.0722 C   0  0  0  0  0  0  0  0  0  0  0  0
    4.6823   -0.0279   -2.4175 C   0  0  0  0  0  0  0  0  0  0  0  0
    5.5234   -1.0394   -2.9971 C   0  0  0  0  0  0  0  0  0  0  0  0
   -1.5980    2.6215    0.8354 C   0  0  0  0  0  0  0  0  0  0  0  0
    0.5621    3.5194    1.6142 C   0  0  0  0  0  0  0  0  0  0  0  0
    5.2038   -2.5085   -3.2520 C   0  0  1  0  0  0  0  0  0  0  0  0
    5.1591    1.3117   -2.3524 C   0  0  0  0  0  0  0  0  0  0  0  0
   -0.8290    3.6176    1.4911 C   0  0  0  0  0  0  0  0  0  0  0  0
    6.8195   -0.6208   -3.4236 C   0  0  0  0  0  0  0  0  0  0  0  0
    6.4386    1.6774   -2.7893 C   0  0  0  0  0  0  0  0  0  0  0  0
   -2.9970    2.6283    0.7900 C   0  0  0  0  0  0  0  0  0  0  0  0
    5.0634   -2.7437   -4.7865 C   0  0  0  0  0  0  0  0  0  0  0  0
    4.0335   -3.2760   -2.5528 C   0  0  0  0  0  0  0  0  0  0  0  0
    7.2804    0.7000   -3.3240 C   0  0  0  0  0  0  0  0  0  0  0  0
   -3.8215    3.5718    1.2733 C   0  0  0  0  0  0  0  0  0  0  0  0
   -5.2042    3.5501    1.2598 C   0  0  0  0  0  0  0  0  0  0  0  0
   -5.9431    4.7533    1.2933 C   0  0  0  0  0  0  0  0  0  0  0  0
   -7.2444    2.2803    1.2444 C   0  0  0  0  0  0  0  0  0  0  0  0
   -7.3466    4.7088    1.2865 C   0  0  0  0  0  0  0  0  0  0  0  0
   -8.0206    3.4707    1.2647 C   0  0  0  0  0  0  0  0  0  0  0  0
   -7.8749    1.0209    1.2412 C   0  0  0  0  0  0  0  0  0  0  0  0
   -9.4278    3.3771    1.2659 C   0  0  0  0  0  0  0  0  0  0  0  0
   -9.2817    0.9389    1.2508 C   0  0  0  0  0  0  0  0  0  0  0  0
  -10.0539    2.1176    1.2594 C   0  0  0  0  0  0  0  0  0  0  0  0
   -3.4365    1.8456    0.3568 H   0  0  0  0  0  0  0  0  0  0  0  0
   -3.4272    4.3818    1.6864 H   0  0  0  0  0  0  0  0  0  0  0  0
  1 40  1  0  0  0  0
  2 10  1  0  0  0  0
  2 13  1  0  0  0  0
  3 12  1  0  0  0  0
  4 12  2  0  0  0  0
  5 23  1  0  0  0  0
  6 33  2  0  0  0  0
  6 35  1  0  0  0  0
  7  8  1  0  0  0  0
  7  9  1  0  0  0  0
  7 10  1  0  0  0  0
  7 11  1  0  0  0  0
  8  9  1  0  0  0  0
 11 12  1  0  0  0  0
 13 14  1  0  0  0  0
 13 15  1  0  0  0  0
 14 16  1  0  0  0  0
 15 17  1  0  0  0  0
 15 18  2  0  0  0  0
 16 19  1  0  0  0  0
 17 21  2  0  0  0  0
 18 22  1  0  0  0  0
 19 20  1  0  0  0  0
 19 24  2  0  0  0  0
 20 23  1  0  0  0  0
 20 26  2  0  0  0  0
 21 25  1  0  0  0  0
 21 28  1  0  0  0  0
 22 25  2  0  0  0  0
 23 29  1  0  0  0  0
 23 30  1  0  0  0  0
 24 27  1  0  0  0  0
 26 31  1  0  0  0  0
 27 31  2  0  0  0  0
 28 32  2  0  0  0  0
 28 42  1  0  0  0  0
 32 33  1  0  0  0  0
 32 43  1  0  0  0  0
 33 34  1  0  0  0  0
 34 36  2  0  0  0  0
 35 37  2  0  0  0  0
 35 38  1  0  0  0  0
 36 37  1  0  0  0  0
 37 39  1  0  0  0  0
 38 40  2  0  0  0  0
 39 41  2  0  0  0  0
 40 41  1  0  0  0  0
M  END
