520884
  -OEChem-10081705543D

 18 20  0     0  0  0  0  0  0999 V2000
    3.4533    0.9887   -0.1852 O   0  0  0  0  0  0  0  0  0  0  0  0
    2.5095    3.0725   -0.2423 O   0  5  0  0  0  0  0  0  0  0  0  0
    1.6529   -0.2348   -0.1047 N   0  3  0  0  0  0  0  0  0  0  0  0
    2.9531   -0.2090   -0.1286 N   0  0  0  0  0  0  0  0  0  0  0  0
    1.2349    1.0601   -0.1530 C   0  0  0  0  0  0  0  0  0  0  0  0
   -0.0527    1.6550   -0.1083 C   0  0  0  0  0  0  0  0  0  0  0  0
    1.0001   -1.4483   -0.0095 C   0  0  0  0  0  0  0  0  0  0  0  0
    2.4016    1.8241   -0.1983 C   0  0  0  0  0  0  0  0  0  0  0  0
   -0.9986    1.4933   -1.1464 C   0  0  0  0  0  0  0  0  0  0  0  0
   -0.4070    2.4860    0.9826 C   0  0  0  0  0  0  0  0  0  0  0  0
    1.5269   -2.4802    0.8128 C   0  0  0  0  0  0  0  0  0  0  0  0
   -0.1781   -1.7645   -0.7259 C   0  0  0  0  0  0  0  0  0  0  0  0
   -2.2956    2.0272   -1.0433 C   0  0  0  0  0  0  0  0  0  0  0  0
   -1.6856    3.0707    1.0675 C   0  0  0  0  0  0  0  0  0  0  0  0
    0.9088   -3.7416    0.9226 C   0  0  0  0  0  0  0  0  0  0  0  0
   -0.8221   -3.0103   -0.6148 C   0  0  0  0  0  0  0  0  0  0  0  0
   -2.6403    2.8168    0.0684 C   0  0  0  0  0  0  0  0  0  0  0  0
   -0.2734   -4.0035    0.2122 C   0  0  0  0  0  0  0  0  0  0  0  0
  1  4  1  0  0  0  0
  1  8  1  0  0  0  0
  2  8  1  0  0  0  0
  3  4  2  0  0  0  0
  3  5  1  0  0  0  0
  3  7  1  0  0  0  0
  5  6  1  0  0  0  0
  5  8  2  0  0  0  0
  6  9  2  0  0  0  0
  6 10  1  0  0  0  0
  7 11  2  0  0  0  0
  7 12  1  0  0  0  0
  9 13  1  0  0  0  0
 10 14  2  0  0  0  0
 11 15  1  0  0  0  0
 12 16  2  0  0  0  0
 13 17  2  0  0  0  0
 14 17  1  0  0  0  0
 15 18  2  0  0  0  0
 16 18  1  0  0  0  0
M  CHG  2   2  -1   3   1
M  END
