522348
  -OEChem-10081705533D

  7  7  0     0  0  0  0  0  0999 V2000
   -1.4409   -1.4780    0.0000 O   0  0  0  0  0  0  0  0  0  0  0  0
   -3.0900    0.1561   -0.0000 O   0  5  0  0  0  0  0  0  0  0  0  0
    0.2930   -0.2086    0.0000 N   0  3  0  0  0  0  0  0  0  0  0  0
   -0.1362   -1.4329   -0.0000 N   0  0  0  0  0  0  0  0  0  0  0  0
   -0.7724    0.6098   -0.0000 C   0  0  0  0  0  0  0  0  0  0  0  0
    1.6695    0.1616    0.0000 C   0  0  0  0  0  0  0  0  0  0  0  0
   -1.8920   -0.2069   -0.0000 C   0  0  0  0  0  0  0  0  0  0  0  0
  1  4  1  0  0  0  0
  1  7  1  0  0  0  0
  2  7  1  0  0  0  0
  3  4  2  0  0  0  0
  3  5  1  0  0  0  0
  3  6  1  0  0  0  0
  5  7  2  0  0  0  0
M  CHG  2   2  -1   3   1
M  END
