
  -OEChem-10081705533D

 24 26  0     1  0  0  0  0  0999 V2000
    1.4828   -5.6970   -6.1532 C   0  0  0  0  0  0  0  0  0  0  0  0
    2.9361   -6.8123   -6.0981 P   0  0  0  0  0  0  0  0  0  0  0  0
    3.5597   -6.1858   -7.7143 C   0  0  0  0  0  0  0  0  0  0  0  0
    2.2353   -5.9632   -8.5291 C   0  0  0  0  0  0  0  0  0  0  0  0
    1.0064   -6.0598   -7.5873 C   0  0  0  0  0  0  0  0  0  0  0  0
    4.2383   -6.8733   -4.8409 C   0  0  0  0  0  0  0  0  0  0  0  0
    4.5102   -6.0999   -3.6892 C   0  0  0  0  0  0  0  0  0  0  0  0
    5.5859   -6.4683   -2.8383 C   0  0  0  0  0  0  0  0  0  0  0  0
    6.3743   -7.5803   -3.0549 C   0  0  0  0  0  0  0  0  0  0  0  0
    6.1067   -8.3792   -4.1523 C   0  0  0  0  0  0  0  0  0  0  0  0
    5.0643   -8.0301   -5.0126 C   0  0  0  0  0  0  0  0  0  0  0  0
    3.6849   -4.6620   -3.1907 P   0  0  0  0  0  0  0  0  0  0  0  0
    4.4545   -3.0752   -2.9247 C   0  0  0  0  0  0  0  0  0  0  0  0
    3.2028   -2.1709   -2.9676 C   0  0  0  0  0  0  0  0  0  0  0  0
    2.0923   -2.9116   -2.1678 C   0  0  0  0  0  0  0  0  0  0  0  0
    2.0482   -4.4184   -2.5621 C   0  0  0  0  0  0  0  0  0  0  0  0
    4.5529   -7.1229   -8.4269 C   0  0  0  0  0  0  0  0  0  0  0  0
    1.5818   -5.2391   -1.3592 C   0  0  0  0  0  0  0  0  0  0  0  0
    5.5842   -2.6544   -3.8662 C   0  0  0  0  0  0  0  0  0  0  0  0
    1.6835   -4.1714   -6.1217 C   0  0  0  0  0  0  0  0  0  0  0  0
    6.0128   -6.7142   -8.2389 C   0  0  0  0  0  0  0  0  0  0  0  0
    0.4305   -3.3843   -5.7088 C   0  0  0  0  0  0  0  0  0  0  0  0
    5.4089   -2.9318   -5.3595 C   0  0  0  0  0  0  0  0  0  0  0  0
    1.3687   -6.7215   -1.6290 C   0  0  0  0  0  0  0  0  0  0  0  0
  1  2  1  0  0  0  0
  1  5  1  0  0  0  0
  1 20  1  0  0  0  0
  2  3  1  0  0  0  0
  2  6  1  0  0  0  0
  3  4  1  0  0  0  0
  3 17  1  0  0  0  0
  4  5  1  0  0  0  0
  6  7  2  0  0  0  0
  6 11  1  0  0  0  0
  7  8  1  0  0  0  0
  7 12  1  0  0  0  0
  8  9  2  0  0  0  0
  9 10  1  0  0  0  0
 10 11  2  0  0  0  0
 12 13  1  0  0  0  0
 12 16  1  0  0  0  0
 13 14  1  0  0  0  0
 13 19  1  0  0  0  0
 14 15  1  0  0  0  0
 15 16  1  0  0  0  0
 16 18  1  0  0  0  0
 17 21  1  0  0  0  0
 18 24  1  0  0  0  0
 19 23  1  0  0  0  0
 20 22  1  0  0  0  0
M  END
