534517
  -OEChem-10081705543D

 15 16  0     0  0  0  0  0  0999 V2000
   -2.5948    3.0030   -1.4044 O   0  0  0  0  0  0  0  0  0  0  0  0
    2.1906   -3.0147    2.1858 O   0  0  0  0  0  0  0  0  0  0  0  0
   -4.5341    2.0809   -1.7291 O   0  0  0  0  0  0  0  0  0  0  0  0
    1.7322   -2.5093    4.2501 O   0  0  0  0  0  0  0  0  0  0  0  0
   -1.3612    1.4147   -1.4825 N   0  3  0  0  0  0  0  0  0  0  0  0
    1.6761   -1.3262    1.2213 N   0  3  0  0  0  0  0  0  0  0  0  0
   -1.4839    2.6313   -1.3330 N   0  0  0  0  0  0  0  0  0  0  0  0
    2.1172   -2.4730    1.1465 N   0  0  0  0  0  0  0  0  0  0  0  0
    0.0329   -0.1478   -0.1894 C   0  0  0  0  0  0  0  0  0  0  0  0
   -0.1480    0.7192   -1.4628 C   0  0  0  0  0  0  0  0  0  0  0  0
    1.5152   -0.4471    0.1461 C   0  0  0  0  0  0  0  0  0  0  0  0
   -2.5474    0.9640   -1.6394 C   0  0  0  0  0  0  0  0  0  0  0  0
    1.4164   -1.1353    2.4592 C   0  0  0  0  0  0  0  0  0  0  0  0
   -3.3206    2.0396   -1.5961 C   0  0  0  0  0  0  0  0  0  0  0  0
    1.7809   -2.2605    3.0551 C   0  0  0  0  0  0  0  0  0  0  0  0
  1  7  1  0  0  0  0
  1 14  1  0  0  0  0
  2  8  1  0  0  0  0
  2 15  1  0  0  0  0
  3 14  2  0  0  0  0
  4 15  2  0  0  0  0
  5  7  1  0  0  0  0
  5 10  1  0  0  0  0
  5 12  2  0  0  0  0
  6  8  1  0  0  0  0
  6 11  1  0  0  0  0
  6 13  2  0  0  0  0
  9 10  1  0  0  0  0
  9 11  1  0  0  0  0
 12 14  1  0  0  0  0
 13 15  1  0  0  0  0
M  CHG  2   5   1   6   1
M  END
