537725
  -OEChem-10081705543D

 11 11  0     1  0  0  0  0  0999 V2000
   -2.3021    2.9852   -0.7268 O   0  0  0  0  0  0  0  0  0  0  0  0
   -4.3382    2.2493   -0.9728 O   0  0  0  0  0  0  0  0  0  0  0  0
   -1.2342    1.2911   -0.8915 N   0  3  0  0  0  0  0  0  0  0  0  0
   -1.2262    2.5111   -0.7198 N   0  0  0  0  0  0  0  0  0  0  0  0
    1.5575   -0.9616    0.5337 C   0  0  1  0  0  0  0  0  0  0  0  0
    0.3630    0.0385    0.4761 C   0  0  0  0  0  0  0  0  0  0  0  0
   -0.1094    0.4612   -0.9394 C   0  0  0  0  0  0  0  0  0  0  0  0
    1.9995   -1.2112    2.0017 C   0  0  0  0  0  0  0  0  0  0  0  0
    1.2752   -2.3110   -0.1837 C   0  0  0  0  0  0  0  0  0  0  0  0
   -2.4626    0.9615   -1.0007 C   0  0  0  0  0  0  0  0  0  0  0  0
   -3.1276    2.1005   -0.9000 C   0  0  0  0  0  0  0  0  0  0  0  0
  1  4  1  0  0  0  0
  1 11  1  0  0  0  0
  2 11  2  0  0  0  0
  3  4  1  0  0  0  0
  3  7  1  0  0  0  0
  3 10  2  0  0  0  0
  5  6  1  0  0  0  0
  5  8  1  0  0  0  0
  5  9  1  0  0  0  0
  6  7  1  0  0  0  0
 10 11  1  0  0  0  0
M  CHG  1   3   1
M  END
