541945
  -OEChem-10081705543D

 10 10  0     0  0  0  0  0  0999 V2000
   -1.3237    1.9734   -0.5208 O   0  0  0  0  0  0  0  0  0  0  0  0
    2.2276   -1.6237    1.2771 O   0  0  0  0  0  0  0  0  0  0  0  0
   -3.3573    1.2503   -0.2401 O   0  0  0  0  0  0  0  0  0  0  0  0
    0.7174   -0.4348    2.0550 O   0  0  0  0  0  0  0  0  0  0  0  0
   -0.2575    0.2715   -0.3750 N   0  3  0  0  0  0  0  0  0  0  0  0
   -0.2511    1.4929   -0.5464 N   0  0  0  0  0  0  0  0  0  0  0  0
    0.8688   -0.5603   -0.2919 C   0  0  0  0  0  0  0  0  0  0  0  0
   -1.4889   -0.0527   -0.2616 C   0  0  0  0  0  0  0  0  0  0  0  0
   -2.1503    1.0914   -0.3427 C   0  0  0  0  0  0  0  0  0  0  0  0
    1.2776   -0.8813    1.0639 C   0  0  0  0  0  0  0  0  0  0  0  0
  1  6  1  0  0  0  0
  1  9  1  0  0  0  0
  2 10  1  0  0  0  0
  3  9  2  0  0  0  0
  4 10  2  0  0  0  0
  5  6  1  0  0  0  0
  5  7  1  0  0  0  0
  5  8  2  0  0  0  0
  7 10  1  0  0  0  0
  8  9  1  0  0  0  0
M  CHG  1   5   1
M  END
