551405
  -OEChem-10081705543D

 11 11  0     1  0  0  0  0  0999 V2000
   -1.8192    2.3329   -1.2273 O   0  0  0  0  0  0  0  0  0  0  0  0
   -3.8576    1.6120   -0.9594 O   0  0  0  0  0  0  0  0  0  0  0  0
   -0.7646    0.6190   -1.1294 N   0  3  0  0  0  0  0  0  0  0  0  0
   -0.7515    1.8437   -1.2757 N   0  0  0  0  0  0  0  0  0  0  0  0
    0.7840   -0.5444    0.4587 C   0  0  1  0  0  0  0  0  0  0  0  0
    0.3560   -0.2193   -1.0199 C   0  0  0  0  0  0  0  0  0  0  0  0
    2.0161   -1.5051    0.4436 C   0  0  0  0  0  0  0  0  0  0  0  0
    1.1860    0.7666    1.2088 C   0  0  0  0  0  0  0  0  0  0  0  0
   -0.3667   -1.2508    1.2472 C   0  0  0  0  0  0  0  0  0  0  0  0
   -2.0021    0.3014   -1.0607 C   0  0  0  0  0  0  0  0  0  0  0  0
   -2.6533    1.4519   -1.0864 C   0  0  0  0  0  0  0  0  0  0  0  0
  1  4  1  0  0  0  0
  1 11  1  0  0  0  0
  2 11  2  0  0  0  0
  3  4  1  0  0  0  0
  3  6  1  0  0  0  0
  3 10  2  0  0  0  0
  5  6  1  0  0  0  0
  5  7  1  0  0  0  0
  5  8  1  0  0  0  0
  5  9  1  0  0  0  0
 10 11  1  0  0  0  0
M  CHG  1   3   1
M  END
