552104
  -OEChem-10081705543D

 11 11  0     0  0  0  0  0  0999 V2000
   -1.7472    2.2871   -0.4997 O   0  0  0  0  0  0  0  0  0  0  0  0
    2.5261   -1.8777    1.8756 O   0  0  0  0  0  0  0  0  0  0  0  0
   -3.7845    1.5658   -0.7549 O   0  0  0  0  0  0  0  0  0  0  0  0
    2.6511   -1.9708   -0.1961 O   0  0  0  0  0  0  0  0  0  0  0  0
   -0.6851    0.5839   -0.6568 N   0  3  0  0  0  0  0  0  0  0  0  0
   -0.6756    1.8052   -0.4862 N   0  0  0  0  0  0  0  0  0  0  0  0
    0.4387   -0.2490   -0.6983 C   0  0  0  0  0  0  0  0  0  0  0  0
    0.9450   -0.6285    0.7185 C   0  0  0  0  0  0  0  0  0  0  0  0
   -1.9170    0.2632   -0.7745 C   0  0  0  0  0  0  0  0  0  0  0  0
   -2.5777    1.4073   -0.6772 C   0  0  0  0  0  0  0  0  0  0  0  0
    2.0830   -1.5244    0.7896 C   0  0  0  0  0  0  0  0  0  0  0  0
  1  6  1  0  0  0  0
  1 10  1  0  0  0  0
  2 11  1  0  0  0  0
  3 10  2  0  0  0  0
  4 11  2  0  0  0  0
  5  6  1  0  0  0  0
  5  7  1  0  0  0  0
  5  9  2  0  0  0  0
  7  8  1  0  0  0  0
  8 11  1  0  0  0  0
  9 10  1  0  0  0  0
M  CHG  1   5   1
M  END
