563922
  -OEChem-10081705543D

 29 32  0     0  0  0  0  0  0999 V2000
    0.6110   -0.8698   -0.8364 O   0  0  0  0  0  0  0  0  0  0  0  0
   -0.3052    0.5992    1.2286 O   0  0  0  0  0  0  0  0  0  0  0  0
   -4.2808    4.2464   -4.4689 O   0  0  0  0  0  0  0  0  0  0  0  0
   -6.2860    3.4724   -4.1915 O   0  0  0  0  0  0  0  0  0  0  0  0
   -3.1960    3.8081   -4.4335 N   0  0  0  0  0  0  0  0  0  0  0  0
   -4.4509    2.2428   -4.0417 N   0  0  0  0  0  0  0  0  0  0  0  0
   -1.7223    1.3038   -2.5823 C   0  0  0  0  0  0  0  0  0  0  0  0
   -2.0926    1.6587   -3.9868 C   0  0  0  0  0  0  0  0  0  0  0  0
   -0.2539    0.0440   -1.0416 C   0  0  0  0  0  0  0  0  0  0  0  0
   -0.7925    0.7475    0.0600 C   0  0  0  0  0  0  0  0  0  0  0  0
   -0.6925    0.3582   -2.3496 C   0  0  0  0  0  0  0  0  0  0  0  0
   -2.3350    1.8873   -1.4437 C   0  0  0  0  0  0  0  0  0  0  0  0
   -1.8711    1.6298   -0.1434 C   0  0  0  0  0  0  0  0  0  0  0  0
   -3.2208    2.5550   -4.1689 C   0  0  0  0  0  0  0  0  0  0  0  0
    0.3391   -2.1792   -0.7032 C   0  0  0  0  0  0  0  0  0  0  0  0
    0.5757    1.4262    1.8169 C   0  0  0  0  0  0  0  0  0  0  0  0
    1.5406   -2.9907   -0.3814 C   0  0  0  0  0  0  0  0  0  0  0  0
    0.9116    0.9986    3.1977 C   0  0  0  0  0  0  0  0  0  0  0  0
    1.6242   -3.7539    0.8092 C   0  0  0  0  0  0  0  0  0  0  0  0
    2.6271   -3.0471   -1.2857 C   0  0  0  0  0  0  0  0  0  0  0  0
    2.2289    0.6297    3.5635 C   0  0  0  0  0  0  0  0  0  0  0  0
   -0.0887    0.9809    4.1984 C   0  0  0  0  0  0  0  0  0  0  0  0
    2.7464   -4.5599    1.0805 C   0  0  0  0  0  0  0  0  0  0  0  0
    3.7529   -3.8501   -1.0188 C   0  0  0  0  0  0  0  0  0  0  0  0
    2.5402    0.2654    4.8875 C   0  0  0  0  0  0  0  0  0  0  0  0
    0.2172    0.6179    5.5239 C   0  0  0  0  0  0  0  0  0  0  0  0
    3.8109   -4.6104    0.1632 C   0  0  0  0  0  0  0  0  0  0  0  0
   -5.0722    3.3397   -4.2381 C   0  0  0  0  0  0  0  0  0  0  0  0
    1.5335    0.2622    5.8694 C   0  0  0  0  0  0  0  0  0  0  0  0
  1  9  1  0  0  0  0
  1 15  1  0  0  0  0
  2 10  1  0  0  0  0
  2 16  1  0  0  0  0
  3  5  1  0  0  0  0
  3 28  1  0  0  0  0
  4 28  2  0  0  0  0
  5 14  1  0  0  0  0
  6 14  2  0  0  0  0
  6 28  1  0  0  0  0
  7  8  1  0  0  0  0
  7 11  2  0  0  0  0
  7 12  1  0  0  0  0
  8 14  1  0  0  0  0
  9 10  2  0  0  0  0
  9 11  1  0  0  0  0
 10 13  1  0  0  0  0
 12 13  2  0  0  0  0
 15 17  1  0  0  0  0
 16 18  1  0  0  0  0
 17 19  2  0  0  0  0
 17 20  1  0  0  0  0
 18 21  2  0  0  0  0
 18 22  1  0  0  0  0
 19 23  1  0  0  0  0
 20 24  2  0  0  0  0
 21 25  1  0  0  0  0
 22 26  2  0  0  0  0
 23 27  2  0  0  0  0
 24 27  1  0  0  0  0
 25 29  2  0  0  0  0
 26 29  1  0  0  0  0
M  END
