6420518
  -OEChem-10081705543D

 13 13  0     1  0  0  0  0  0999 V2000
    1.3262   -1.6675    1.2051 O   0  0  0  0  0  0  0  0  0  0  0  0
   -0.3740   -2.8944    1.5975 O   0  0  0  0  0  0  0  0  0  0  0  0
   -3.8684   -1.0637    0.8453 O   0  0  0  0  0  0  0  0  0  0  0  0
    0.5143   -0.0646    0.2383 N   0  0  0  0  0  0  0  0  0  0  0  0
    0.4483    0.9843   -0.5937 N   0  0  0  0  0  0  0  0  0  0  0  0
    1.6538   -0.5773    0.6717 N   0  0  0  0  0  0  0  0  0  0  0  0
   -2.7329   -1.3252    0.9100 N   0  3  0  0  0  0  0  0  0  0  0  0
   -0.4799   -0.7944    0.6391 C   0  0  0  0  0  0  0  0  0  0  0  0
    1.2867    2.1653   -0.2560 C   0  0  0  0  0  0  0  0  0  0  0  0
    0.4854    0.5760   -2.0237 C   0  0  0  0  0  0  0  0  0  0  0  0
    0.1252   -1.8594    1.1786 C   0  0  0  0  0  0  0  0  0  0  0  0
   -1.7932   -0.5284    0.5171 C   0  0  0  0  0  0  0  0  0  0  0  0
   -2.0536    0.3381    0.0996 H   0  0  0  0  0  0  0  0  0  0  0  0
  1  6  1  0  0  0  0
  1 11  1  0  0  0  0
  2 11  2  0  0  0  0
  3  7  2  0  0  0  0
  4  5  1  0  0  0  0
  4  6  1  0  0  0  0
  4  8  1  0  0  0  0
  5  9  1  0  0  0  0
  5 10  1  0  0  0  0
  7 12  1  0  0  0  0
  8 11  1  0  0  0  0
  8 12  2  0  0  0  0
 12 13  1  0  0  0  0
M  CHG  1   7   1
M  END
