578903
  -OEChem-10081705543D

 13 14  0     0  0  0  0  0  0999 V2000
    1.9265    3.7148   -0.7269 F   0  0  0  0  0  0  0  0  0  0  0  0
   -1.9838   -2.3409    1.0219 O   0  0  0  0  0  0  0  0  0  0  0  0
   -1.3527   -4.2486    0.1885 O   0  0  0  0  0  0  0  0  0  0  0  0
   -0.6037   -1.0691    0.2547 N   0  3  0  0  0  0  0  0  0  0  0  0
   -1.6088   -1.2289    0.9585 N   0  0  0  0  0  0  0  0  0  0  0  0
    0.0175    0.0956    0.0065 C   0  0  0  0  0  0  0  0  0  0  0  0
    1.4232    0.1692   -0.1639 C   0  0  0  0  0  0  0  0  0  0  0  0
   -0.7127    1.3071   -0.0949 C   0  0  0  0  0  0  0  0  0  0  0  0
   -0.3188   -2.2475   -0.1594 C   0  0  0  0  0  0  0  0  0  0  0  0
    2.0739    1.3917   -0.4116 C   0  0  0  0  0  0  0  0  0  0  0  0
   -0.0723    2.5348   -0.3490 C   0  0  0  0  0  0  0  0  0  0  0  0
   -1.2441   -3.0430    0.3534 C   0  0  0  0  0  0  0  0  0  0  0  0
    1.3252    2.5785   -0.5022 C   0  0  0  0  0  0  0  0  0  0  0  0
  1 13  1  0  0  0  0
  2  5  1  0  0  0  0
  2 12  1  0  0  0  0
  3 12  2  0  0  0  0
  4  5  1  0  0  0  0
  4  6  1  0  0  0  0
  4  9  2  0  0  0  0
  6  7  2  0  0  0  0
  6  8  1  0  0  0  0
  7 10  1  0  0  0  0
  8 11  2  0  0  0  0
  9 12  1  0  0  0  0
 10 13  2  0  0  0  0
 11 13  1  0  0  0  0
M  CHG  1   4   1
M  END
