584111
  -OEChem-10081705543D

 14 15  0     0  0  0  0  0  0999 V2000
   -2.4317   -2.0991    0.7783 O   0  0  0  0  0  0  0  0  0  0  0  0
    1.7319   -0.5655   -0.1852 O   0  0  0  0  0  0  0  0  0  0  0  0
   -1.8174   -4.0147   -0.0480 O   0  0  0  0  0  0  0  0  0  0  0  0
   -1.0711   -0.8309   -0.0314 N   0  3  0  0  0  0  0  0  0  0  0  0
   -2.0584   -0.9876    0.6970 N   0  0  0  0  0  0  0  0  0  0  0  0
   -0.4415    0.3350   -0.2761 C   0  0  0  0  0  0  0  0  0  0  0  0
    0.9733    0.4274   -0.4029 C   0  0  0  0  0  0  0  0  0  0  0  0
   -1.1811    1.5395   -0.3898 C   0  0  0  0  0  0  0  0  0  0  0  0
   -0.8137   -2.0091   -0.4630 C   0  0  0  0  0  0  0  0  0  0  0  0
    1.6027    1.6529   -0.7061 C   0  0  0  0  0  0  0  0  0  0  0  0
   -0.5515    2.7734   -0.6404 C   0  0  0  0  0  0  0  0  0  0  0  0
    0.8415    2.8273   -0.8101 C   0  0  0  0  0  0  0  0  0  0  0  0
   -1.7147   -2.8057    0.0908 C   0  0  0  0  0  0  0  0  0  0  0  0
    2.1272   -0.9707    1.0265 C   0  0  0  0  0  0  0  0  0  0  0  0
  1  5  1  0  0  0  0
  1 13  1  0  0  0  0
  2  7  1  0  0  0  0
  2 14  1  0  0  0  0
  3 13  2  0  0  0  0
  4  5  1  0  0  0  0
  4  6  1  0  0  0  0
  4  9  2  0  0  0  0
  6  7  1  0  0  0  0
  6  8  2  0  0  0  0
  7 10  2  0  0  0  0
  8 11  1  0  0  0  0
  9 13  1  0  0  0  0
 10 12  1  0  0  0  0
 11 12  2  0  0  0  0
M  CHG  1   4   1
M  END
