590432
  -OEChem-10081705543D

 15 16  0     0  0  0  0  0  0999 V2000
   -2.2499   -2.1579    1.2088 O   0  0  0  0  0  0  0  0  0  0  0  0
    3.0526   -0.6194    0.5951 O   0  0  0  0  0  0  0  0  0  0  0  0
   -2.1649   -3.9869    0.0391 O   0  0  0  0  0  0  0  0  0  0  0  0
    1.8518   -1.8556   -0.5109 O   0  0  0  0  0  0  0  0  0  0  0  0
   -0.9836   -0.9475    0.1909 N   0  3  0  0  0  0  0  0  0  0  0  0
   -1.7570   -1.0944    1.1457 N   0  0  0  0  0  0  0  0  0  0  0  0
   -0.3154    0.1856   -0.0844 C   0  0  0  0  0  0  0  0  0  0  0  0
    1.1052    0.3057   -0.1992 C   0  0  0  0  0  0  0  0  0  0  0  0
   -1.1087    1.3550   -0.2152 C   0  0  0  0  0  0  0  0  0  0  0  0
   -1.0238   -2.0666   -0.4274 C   0  0  0  0  0  0  0  0  0  0  0  0
    1.6601    1.5870   -0.4580 C   0  0  0  0  0  0  0  0  0  0  0  0
   -0.5357    2.6149   -0.4516 C   0  0  0  0  0  0  0  0  0  0  0  0
    0.8548    2.7306   -0.5773 C   0  0  0  0  0  0  0  0  0  0  0  0
   -1.8494   -2.8302    0.2728 C   0  0  0  0  0  0  0  0  0  0  0  0
    2.0067   -0.7428   -0.0354 C   0  0  0  0  0  0  0  0  0  0  0  0
  1  6  1  0  0  0  0
  1 14  1  0  0  0  0
  2 15  1  0  0  0  0
  3 14  2  0  0  0  0
  4 15  2  0  0  0  0
  5  6  1  0  0  0  0
  5  7  1  0  0  0  0
  5 10  2  0  0  0  0
  7  8  1  0  0  0  0
  7  9  2  0  0  0  0
  8 11  2  0  0  0  0
  8 15  1  0  0  0  0
  9 12  1  0  0  0  0
 10 14  1  0  0  0  0
 11 13  1  0  0  0  0
 12 13  2  0  0  0  0
M  CHG  1   5   1
M  END
