601411
  -OEChem-10081705543D

 17 18  0     0  0  0  0  0  0999 V2000
    0.6851   -3.6340   -0.2710 S   0  0  0  0  0  0  0  0  0  0  0  0
   -2.4805   -3.1334    1.6125 O   0  0  0  0  0  0  0  0  0  0  0  0
   -1.8421   -5.0449    0.8747 O   0  0  0  0  0  0  0  0  0  0  0  0
   -1.0321   -1.8774    0.9360 N   0  3  0  0  0  0  0  0  0  0  0  0
    1.0765    3.1459   -0.2307 N   0  0  0  0  0  0  0  0  0  0  0  0
   -2.0885   -2.0333    1.5662 N   0  0  0  0  0  0  0  0  0  0  0  0
   -0.4688   -0.6677    0.7289 C   0  0  0  0  0  0  0  0  0  0  0  0
    0.6103    1.9366    0.1256 C   0  0  0  0  0  0  0  0  0  0  0  0
    0.9281   -0.4451    0.6235 C   0  0  0  0  0  0  0  0  0  0  0  0
   -1.2981    0.4739    0.5831 C   0  0  0  0  0  0  0  0  0  0  0  0
    1.4593    0.8222    0.3161 C   0  0  0  0  0  0  0  0  0  0  0  0
   -0.7770    1.7445    0.2938 C   0  0  0  0  0  0  0  0  0  0  0  0
   -0.6989   -3.0677    0.5751 C   0  0  0  0  0  0  0  0  0  0  0  0
    1.6090    3.3081   -1.5268 C   0  0  0  0  0  0  0  0  0  0  0  0
    0.8554    4.2673    0.5956 C   0  0  0  0  0  0  0  0  0  0  0  0
   -1.6921   -3.8410    1.0185 C   0  0  0  0  0  0  0  0  0  0  0  0
    0.0290   -4.1906   -1.8568 C   0  0  0  0  0  0  0  0  0  0  0  0
  1 13  1  0  0  0  0
  1 17  1  0  0  0  0
  2  6  1  0  0  0  0
  2 16  1  0  0  0  0
  3 16  2  0  0  0  0
  4  6  1  0  0  0  0
  4  7  1  0  0  0  0
  4 13  2  0  0  0  0
  5  8  1  0  0  0  0
  5 14  1  0  0  0  0
  5 15  1  0  0  0  0
  7  9  2  0  0  0  0
  7 10  1  0  0  0  0
  8 11  2  0  0  0  0
  8 12  1  0  0  0  0
  9 11  1  0  0  0  0
 10 12  2  0  0  0  0
 13 16  1  0  0  0  0
M  CHG  1   4   1
M  END
