625737
  -OEChem-10081705543D

 24 26  0     1  0  0  0  0  0999 V2000
    1.9874    1.3615    0.9949 S   0  0  2  0  0  0  0  0  0  0  0  0
   -2.4710   -4.8832    2.3661 O   0  0  0  0  0  0  0  0  0  0  0  0
    3.5294    0.9947    0.8597 O   0  0  0  0  0  0  0  0  0  0  0  0
    1.8110    2.1627    2.3584 O   0  0  0  0  0  0  0  0  0  0  0  0
   -4.1026   -5.3625    1.0381 O   0  0  0  0  0  0  0  0  0  0  0  0
   -0.1021    5.6483   -3.6936 O   0  5  0  0  0  0  0  0  0  0  0  0
    0.5738    4.2510   -4.8561 O   0  0  0  0  0  0  0  0  0  0  0  0
   -1.4433   -3.4431    1.3520 N   0  0  0  0  0  0  0  0  0  0  0  0
   -1.4137   -4.1973    2.4355 N   0  0  0  0  0  0  0  0  0  0  0  0
    0.4087    4.5944   -3.7506 N   0  3  0  0  0  0  0  0  0  0  0  0
    0.9921   -0.0675    1.0677 C   0  0  0  0  0  0  0  0  0  0  0  0
   -0.6633   -2.3738    1.2281 C   0  0  0  0  0  0  0  0  0  0  0  0
    1.5232    2.3251   -0.3798 C   0  0  0  0  0  0  0  0  0  0  0  0
    1.5619   -1.3576    1.1026 C   0  0  0  0  0  0  0  0  0  0  0  0
   -0.4121    0.0614    1.0996 C   0  0  0  0  0  0  0  0  0  0  0  0
   -2.3704   -3.8941    0.4245 C   0  0  0  0  0  0  0  0  0  0  0  0
    0.7424   -2.4986    1.1870 C   0  0  0  0  0  0  0  0  0  0  0  0
   -1.2303   -1.0804    1.1730 C   0  0  0  0  0  0  0  0  0  0  0  0
    1.7556    1.8364   -1.6803 C   0  0  0  0  0  0  0  0  0  0  0  0
    0.9083    3.5827   -0.2244 C   0  0  0  0  0  0  0  0  0  0  0  0
   -3.0643   -4.7754    1.3043 C   0  0  0  0  0  0  0  0  0  0  0  0
    1.3804    2.5977   -2.8017 C   0  0  0  0  0  0  0  0  0  0  0  0
    0.5381    4.3353   -1.3533 C   0  0  0  0  0  0  0  0  0  0  0  0
    0.7627    3.8690   -2.6755 C   0  0  0  0  0  0  0  0  0  0  0  0
  1  3  2  0  0  0  0
  1  4  2  0  0  0  0
  1 11  1  0  0  0  0
  1 13  1  0  0  0  0
  2  9  1  0  0  0  0
  2 21  1  0  0  0  0
  5 21  2  0  0  0  0
  6 10  1  0  0  0  0
  7 10  2  0  0  0  0
  8  9  1  0  0  0  0
  8 12  1  0  0  0  0
  8 16  1  0  0  0  0
 10 24  1  0  0  0  0
 11 14  2  0  0  0  0
 11 15  1  0  0  0  0
 12 17  2  0  0  0  0
 12 18  1  0  0  0  0
 13 19  2  0  0  0  0
 13 20  1  0  0  0  0
 14 17  1  0  0  0  0
 15 18  2  0  0  0  0
 16 21  1  0  0  0  0
 19 22  1  0  0  0  0
 20 23  2  0  0  0  0
 22 24  2  0  0  0  0
 23 24  1  0  0  0  0
M  CHG  2   6  -1  10   1
M  END
