71932
  -OEChem-10081705543D

 24 26  0     1  0  0  0  0  0999 V2000
   -0.6268   -1.0455   -0.9493 O   0  0  0  0  0  0  0  0  0  0  0  0
   -2.7575   -0.9675    0.9015 O   0  5  0  0  0  0  0  0  0  0  0  0
    0.9747    0.3770   -1.0660 N   0  3  0  0  0  0  0  0  0  0  0  0
    0.6574   -0.8813   -1.0275 N   0  0  0  0  0  0  0  0  0  0  0  0
   -2.5050    0.3448   -0.8276 N   0  0  0  0  0  0  0  0  0  0  0  0
   -4.5482   -0.1277   -0.0810 N   0  0  0  0  0  0  0  0  0  0  0  0
    2.3368    0.8315   -1.1511 C   0  0  1  0  0  0  0  0  0  0  0  0
    3.1582    0.3643    0.0961 C   0  0  0  0  0  0  0  0  0  0  0  0
    4.5830    0.7638    0.2986 C   0  0  0  0  0  0  0  0  0  0  0  0
    2.8796    0.3587   -2.5311 C   0  0  0  0  0  0  0  0  0  0  0  0
   -0.1635    1.0976   -1.0242 C   0  0  0  0  0  0  0  0  0  0  0  0
    5.3013    0.1994    1.3839 C   0  0  0  0  0  0  0  0  0  0  0  0
    5.2826    1.6678   -0.5373 C   0  0  0  0  0  0  0  0  0  0  0  0
   -1.1980    0.1771   -0.9363 C   0  0  0  0  0  0  0  0  0  0  0  0
    6.6710    0.4629    1.5778 C   0  0  0  0  0  0  0  0  0  0  0  0
    6.6581    1.9108   -0.3748 C   0  0  0  0  0  0  0  0  0  0  0  0
    7.3556    1.3005    0.6807 C   0  0  0  0  0  0  0  0  0  0  0  0
   -3.2601   -0.2708    0.0134 C   0  0  0  0  0  0  0  0  0  0  0  0
   -5.5380   -0.8259    0.4916 C   0  0  0  0  0  0  0  0  0  0  0  0
   -6.8240   -0.2381    0.4931 C   0  0  0  0  0  0  0  0  0  0  0  0
   -5.4039   -2.1098    1.0831 C   0  0  0  0  0  0  0  0  0  0  0  0
   -7.9212   -0.8858    1.0940 C   0  0  0  0  0  0  0  0  0  0  0  0
   -6.4897   -2.7580    1.6950 C   0  0  0  0  0  0  0  0  0  0  0  0
   -7.7516   -2.1424    1.7020 C   0  0  0  0  0  0  0  0  0  0  0  0
  1  4  1  0  0  0  0
  1 14  1  0  0  0  0
  2 18  1  0  0  0  0
  3  4  2  0  0  0  0
  3  7  1  0  0  0  0
  3 11  1  0  0  0  0
  5 14  1  0  0  0  0
  5 18  2  0  0  0  0
  6 18  1  0  0  0  0
  6 19  1  0  0  0  0
  7  8  1  0  0  0  0
  7 10  1  0  0  0  0
  8  9  1  0  0  0  0
  9 12  2  0  0  0  0
  9 13  1  0  0  0  0
 11 14  2  0  0  0  0
 12 15  1  0  0  0  0
 13 16  2  0  0  0  0
 15 17  2  0  0  0  0
 16 17  1  0  0  0  0
 19 20  2  0  0  0  0
 19 21  1  0  0  0  0
 20 22  1  0  0  0  0
 21 23  2  0  0  0  0
 22 24  2  0  0  0  0
 23 24  1  0  0  0  0
M  CHG  2   2  -1   3   1
M  END
