72088
  -OEChem-10081705533D

 15 16  0     1  0  0  0  0  0999 V2000
   -3.9395   -1.5762   -0.3085 O   0  0  0  0  0  0  0  0  0  0  0  0
   -2.1765   -0.3434   -0.4517 N   0  3  0  0  0  0  0  0  0  0  0  0
   -2.6361   -1.5535   -0.3484 N   0  0  0  0  0  0  0  0  0  0  0  0
   -5.6120    0.0907   -0.3891 N   0  5  0  0  0  0  0  0  0  0  0  0
   -0.7869    0.0052   -0.5823 C   0  0  1  0  0  0  0  0  0  0  0  0
    0.0503   -0.3312    0.6924 C   0  0  0  0  0  0  0  0  0  0  0  0
    1.4727    0.1234    0.7903 C   0  0  0  0  0  0  0  0  0  0  0  0
   -0.2441   -0.6450   -1.8877 C   0  0  0  0  0  0  0  0  0  0  0  0
   -3.2315    0.4941   -0.4548 C   0  0  0  0  0  0  0  0  0  0  0  0
    2.2869   -0.3819    1.8358 C   0  0  0  0  0  0  0  0  0  0  0  0
    2.0787    1.0323   -0.1136 C   0  0  0  0  0  0  0  0  0  0  0  0
   -4.3660   -0.3001   -0.3819 C   0  0  0  0  0  0  0  0  0  0  0  0
    3.6546   -0.0570    1.9265 C   0  0  0  0  0  0  0  0  0  0  0  0
    3.4472    1.3474   -0.0461 C   0  0  0  0  0  0  0  0  0  0  0  0
    4.2391    0.7918    0.9707 C   0  0  0  0  0  0  0  0  0  0  0  0
  1  3  1  0  0  0  0
  1 12  1  0  0  0  0
  2  3  2  0  0  0  0
  2  5  1  0  0  0  0
  2  9  1  0  0  0  0
  4 12  1  0  0  0  0
  5  6  1  0  0  0  0
  5  8  1  0  0  0  0
  6  7  1  0  0  0  0
  7 10  2  0  0  0  0
  7 11  1  0  0  0  0
  9 12  2  0  0  0  0
 10 13  1  0  0  0  0
 11 14  2  0  0  0  0
 13 15  2  0  0  0  0
 14 15  1  0  0  0  0
M  CHG  2   2   1   4  -1
M  END
