84482
  -OEChem-10081705533D

 17 18  0     0  0  0  0  0  0999 V2000
   -2.3348   -1.7312   -1.3918 O   0  0  0  0  0  0  0  0  0  0  0  0
   -3.9617   -0.1092   -1.3145 O   0  5  0  0  0  0  0  0  0  0  0  0
   -0.6254    2.9543    0.4897 O   0  0  0  0  0  0  0  0  0  0  0  0
   -0.5745   -0.4732   -1.3559 N   0  3  0  0  0  0  0  0  0  0  0  0
   -1.0342   -1.6870   -1.3990 N   0  0  0  0  0  0  0  0  0  0  0  0
   -2.5135    2.0355    0.9253 N   0  0  0  0  0  0  0  0  0  0  0  0
    0.8315   -0.1751   -1.3272 C   0  0  0  0  0  0  0  0  0  0  0  0
   -1.6341    0.3663   -1.3428 C   0  0  0  0  0  0  0  0  0  0  0  0
    1.5035   -0.6609   -0.0928 C   0  0  0  0  0  0  0  0  0  0  0  0
   -1.6509    1.8451   -1.2826 C   0  0  0  0  0  0  0  0  0  0  0  0
   -2.7592   -0.4556   -1.3508 C   0  0  0  0  0  0  0  0  0  0  0  0
    2.0542    0.2322    0.8589 C   0  0  0  0  0  0  0  0  0  0  0  0
    1.6120   -2.0499    0.1605 C   0  0  0  0  0  0  0  0  0  0  0  0
   -1.5783    2.3020    0.0879 C   0  0  0  0  0  0  0  0  0  0  0  0
    2.6800   -0.2460    2.0264 C   0  0  0  0  0  0  0  0  0  0  0  0
    2.2196   -2.5335    1.3329 C   0  0  0  0  0  0  0  0  0  0  0  0
    2.7571   -1.6299    2.2651 C   0  0  0  0  0  0  0  0  0  0  0  0
  1  5  1  0  0  0  0
  1 11  1  0  0  0  0
  2 11  1  0  0  0  0
  3 14  2  0  0  0  0
  4  5  2  0  0  0  0
  4  7  1  0  0  0  0
  4  8  1  0  0  0  0
  6 14  1  0  0  0  0
  7  9  1  0  0  0  0
  8 10  1  0  0  0  0
  8 11  2  0  0  0  0
  9 12  2  0  0  0  0
  9 13  1  0  0  0  0
 10 14  1  0  0  0  0
 12 15  1  0  0  0  0
 13 16  2  0  0  0  0
 15 17  2  0  0  0  0
 16 17  1  0  0  0  0
M  CHG  2   2  -1   4   1
M  END
