9571076
  -OEChem-10081705533D

 24 26  0     1  0  0  0  0  0999 V2000
    1.4859   -0.8077    0.0834 O   0  0  0  0  0  0  0  0  0  0  0  0
    2.5112    1.6629   -0.2524 O   0  5  0  0  0  0  0  0  0  0  0  0
    1.1381    7.5916    0.9163 O   0  0  0  0  0  0  0  0  0  0  0  0
   -0.9401   -3.0971   -0.0328 N   0  0  0  0  0  0  0  0  0  0  0  0
   -0.2535   -2.0312    0.1284 N   0  3  0  0  0  0  0  0  0  0  0  0
    1.0260   -2.0106   -0.0747 N   0  0  0  0  0  0  0  0  0  0  0  0
    0.5308    1.3178    0.5690 N   0  0  0  0  0  0  0  0  0  0  0  0
   -1.6963   -3.2812   -1.2325 C   0  0  2  0  0  0  0  0  0  0  0  0
   -0.8497   -4.1551    0.9216 C   0  0  1  0  0  0  0  0  0  0  0  0
   -1.1256   -4.5147   -1.9981 C   0  0  0  0  0  0  0  0  0  0  0  0
   -0.2421   -5.4106    0.2251 C   0  0  0  0  0  0  0  0  0  0  0  0
   -0.9840   -5.7597   -1.0885 C   0  0  0  0  0  0  0  0  0  0  0  0
   -1.8341   -2.0852   -2.2245 C   0  0  0  0  0  0  0  0  0  0  0  0
   -0.1072   -3.8775    2.2637 C   0  0  0  0  0  0  0  0  0  0  0  0
   -0.6716   -0.7976    0.4712 C   0  0  0  0  0  0  0  0  0  0  0  0
    0.4569    0.0077    0.4034 C   0  0  0  0  0  0  0  0  0  0  0  0
    1.4939    2.1226    0.2793 C   0  0  0  0  0  0  0  0  0  0  0  0
    1.4178    3.4993    0.5118 C   0  0  0  0  0  0  0  0  0  0  0  0
    2.4504    4.3669    0.0696 C   0  0  0  0  0  0  0  0  0  0  0  0
    0.3172    4.1012    1.1771 C   0  0  0  0  0  0  0  0  0  0  0  0
    2.3756    5.7592    0.2331 C   0  0  0  0  0  0  0  0  0  0  0  0
    0.2312    5.4951    1.3494 C   0  0  0  0  0  0  0  0  0  0  0  0
    1.2462    6.3318    0.8456 C   0  0  0  0  0  0  0  0  0  0  0  0
    0.6215    8.3742   -0.0371 C   0  0  0  0  0  0  0  0  0  0  0  0
  1  6  1  0  0  0  0
  1 16  1  0  0  0  0
  2 17  1  0  0  0  0
  3 23  1  0  0  0  0
  3 24  1  0  0  0  0
  4  5  1  0  0  0  0
  4  8  1  0  0  0  0
  4  9  1  0  0  0  0
  5  6  2  0  0  0  0
  5 15  1  0  0  0  0
  7 16  1  0  0  0  0
  7 17  2  0  0  0  0
  8 10  1  0  0  0  0
  8 13  1  0  0  0  0
  9 11  1  0  0  0  0
  9 14  1  0  0  0  0
 10 12  1  0  0  0  0
 11 12  1  0  0  0  0
 15 16  2  0  0  0  0
 17 18  1  0  0  0  0
 18 19  2  0  0  0  0
 18 20  1  0  0  0  0
 19 21  1  0  0  0  0
 20 22  2  0  0  0  0
 21 23  2  0  0  0  0
 22 23  1  0  0  0  0
M  CHG  2   2  -1   5   1
M  END
