9588052
  -OEChem-10081705543D

 25 27  0     1  0  0  0  0  0999 V2000
   -8.9118   -3.1132    2.4723 Cl  0  0  0  0  0  0  0  0  0  0  0  0
   -0.6260   -1.0251   -1.0192 O   0  0  0  0  0  0  0  0  0  0  0  0
   -2.7323   -0.8130    0.9806 O   0  5  0  0  0  0  0  0  0  0  0  0
    0.9570    0.4279   -1.0916 N   0  3  0  0  0  0  0  0  0  0  0  0
    0.6560   -0.8361   -1.0873 N   0  0  0  0  0  0  0  0  0  0  0  0
   -2.5211    0.3303   -0.8772 N   0  0  0  0  0  0  0  0  0  0  0  0
   -4.5416   -0.1346   -0.0873 N   0  0  0  0  0  0  0  0  0  0  0  0
    2.3130    0.9045   -1.1691 C   0  0  1  0  0  0  0  0  0  0  0  0
    3.1424    0.4167    0.0650 C   0  0  0  0  0  0  0  0  0  0  0  0
    4.5708    0.8006    0.2736 C   0  0  0  0  0  0  0  0  0  0  0  0
    2.8470    0.4700   -2.5653 C   0  0  0  0  0  0  0  0  0  0  0  0
   -0.1926    1.1291   -1.0309 C   0  0  0  0  0  0  0  0  0  0  0  0
    5.2700    0.2402    1.3735 C   0  0  0  0  0  0  0  0  0  0  0  0
    5.2937    1.6821   -0.5665 C   0  0  0  0  0  0  0  0  0  0  0  0
   -1.2119    0.1892   -0.9785 C   0  0  0  0  0  0  0  0  0  0  0  0
    6.6408    0.4882    1.5808 C   0  0  0  0  0  0  0  0  0  0  0  0
    6.6733    1.8989   -0.3982 C   0  0  0  0  0  0  0  0  0  0  0  0
    7.3489    1.2972    0.6760 C   0  0  0  0  0  0  0  0  0  0  0  0
   -3.2507   -0.2218    0.0253 C   0  0  0  0  0  0  0  0  0  0  0  0
   -5.4978   -0.8592    0.5051 C   0  0  0  0  0  0  0  0  0  0  0  0
   -6.7960   -0.3043    0.5601 C   0  0  0  0  0  0  0  0  0  0  0  0
   -5.3084   -2.1499    1.0628 C   0  0  0  0  0  0  0  0  0  0  0  0
   -7.8581   -0.9975    1.1727 C   0  0  0  0  0  0  0  0  0  0  0  0
   -6.3600   -2.8458    1.6816 C   0  0  0  0  0  0  0  0  0  0  0  0
   -7.6419   -2.2698    1.7367 C   0  0  0  0  0  0  0  0  0  0  0  0
  1 25  1  0  0  0  0
  2  5  1  0  0  0  0
  2 15  1  0  0  0  0
  3 19  1  0  0  0  0
  4  5  2  0  0  0  0
  4  8  1  0  0  0  0
  4 12  1  0  0  0  0
  6 15  1  0  0  0  0
  6 19  2  0  0  0  0
  7 19  1  0  0  0  0
  7 20  1  0  0  0  0
  8  9  1  0  0  0  0
  8 11  1  0  0  0  0
  9 10  1  0  0  0  0
 10 13  2  0  0  0  0
 10 14  1  0  0  0  0
 12 15  2  0  0  0  0
 13 16  1  0  0  0  0
 14 17  2  0  0  0  0
 16 18  2  0  0  0  0
 17 18  1  0  0  0  0
 20 21  2  0  0  0  0
 20 22  1  0  0  0  0
 21 23  1  0  0  0  0
 22 24  2  0  0  0  0
 23 25  2  0  0  0  0
 24 25  1  0  0  0  0
M  CHG  2   3  -1   4   1
M  END
