9588053
  -OEChem-10081705543D

 26 28  0     1  0  0  0  0  0999 V2000
   -9.3948   -0.3758    1.1773 Cl  0  0  0  0  0  0  0  0  0  0  0  0
   -8.7620   -3.2731    2.4994 Cl  0  0  0  0  0  0  0  0  0  0  0  0
   -0.6418   -0.9895   -0.9250 O   0  0  0  0  0  0  0  0  0  0  0  0
   -2.7407   -0.6969    1.0123 O   0  5  0  0  0  0  0  0  0  0  0  0
    0.9643    0.4217   -1.0881 N   0  3  0  0  0  0  0  0  0  0  0  0
    0.6427   -0.8331   -1.0042 N   0  0  0  0  0  0  0  0  0  0  0  0
   -2.5180    0.3847   -0.8806 N   0  0  0  0  0  0  0  0  0  0  0  0
   -4.5464   -0.0932   -0.0986 N   0  0  0  0  0  0  0  0  0  0  0  0
    2.3299    0.8623   -1.1812 C   0  0  1  0  0  0  0  0  0  0  0  0
    3.1439    0.3952    0.0702 C   0  0  0  0  0  0  0  0  0  0  0  0
    2.8791    0.3671   -2.5502 C   0  0  0  0  0  0  0  0  0  0  0  0
    4.5666    0.7948    0.2782 C   0  0  0  0  0  0  0  0  0  0  0  0
   -0.1707    1.1492   -1.0768 C   0  0  0  0  0  0  0  0  0  0  0  0
    5.2858    0.2091    1.3510 C   0  0  0  0  0  0  0  0  0  0  0  0
    5.2597    1.7211   -0.5384 C   0  0  0  0  0  0  0  0  0  0  0  0
   -1.2082    0.2344   -0.9632 C   0  0  0  0  0  0  0  0  0  0  0  0
    6.6512    0.4826    1.5574 C   0  0  0  0  0  0  0  0  0  0  0  0
    6.6297    1.9816   -0.3569 C   0  0  0  0  0  0  0  0  0  0  0  0
    7.3284    1.3552    0.6884 C   0  0  0  0  0  0  0  0  0  0  0  0
   -3.2556   -0.1457    0.0313 C   0  0  0  0  0  0  0  0  0  0  0  0
   -5.4851   -0.8494    0.4874 C   0  0  0  0  0  0  0  0  0  0  0  0
   -6.8039   -0.3449    0.5368 C   0  0  0  0  0  0  0  0  0  0  0  0
   -5.2515   -2.1310    1.0447 C   0  0  0  0  0  0  0  0  0  0  0  0
   -7.8471   -1.0695    1.1537 C   0  0  0  0  0  0  0  0  0  0  0  0
   -6.2749   -2.8581    1.6712 C   0  0  0  0  0  0  0  0  0  0  0  0
   -7.5784   -2.3326    1.7303 C   0  0  0  0  0  0  0  0  0  0  0  0
  1 24  1  0  0  0  0
  2 26  1  0  0  0  0
  3  6  1  0  0  0  0
  3 16  1  0  0  0  0
  4 20  1  0  0  0  0
  5  6  2  0  0  0  0
  5  9  1  0  0  0  0
  5 13  1  0  0  0  0
  7 16  1  0  0  0  0
  7 20  2  0  0  0  0
  8 20  1  0  0  0  0
  8 21  1  0  0  0  0
  9 10  1  0  0  0  0
  9 11  1  0  0  0  0
 10 12  1  0  0  0  0
 12 14  2  0  0  0  0
 12 15  1  0  0  0  0
 13 16  2  0  0  0  0
 14 17  1  0  0  0  0
 15 18  2  0  0  0  0
 17 19  2  0  0  0  0
 18 19  1  0  0  0  0
 21 22  2  0  0  0  0
 21 23  1  0  0  0  0
 22 24  1  0  0  0  0
 23 25  2  0  0  0  0
 24 26  2  0  0  0  0
 25 26  1  0  0  0  0
M  CHG  2   4  -1   5   1
M  END
